11,12-epoxyeicosatrienoic acid
  Mrv2113 02112212262D          

 23 23  0  0  0  0            999 V2000
    0.0000    4.1251    0.0000 C   0  0  0  0  0  0  0  0  0  0  0  0
    0.7145    3.7126    0.0000 C   0  0  0  0  0  0  0  0  0  0  0  0
    0.7145    2.8876    0.0000 C   0  0  0  0  0  0  0  0  0  0  0  0
    1.4290    2.4751    0.0000 C   0  0  0  0  0  0  0  0  0  0  0  0
    1.4290    1.6500    0.0000 C   0  0  0  0  0  0  0  0  0  0  0  0
    2.1435    1.2375    0.0000 C   0  0  0  0  0  0  0  0  0  0  0  0
    2.1435    0.4125    0.0000 C   0  0  0  0  0  0  0  0  0  0  0  0
    2.8579    0.0000    0.0000 C   0  0  0  0  0  0  0  0  0  0  0  0
    3.5724    0.4125    0.0000 C   0  0  0  0  0  0  0  0  0  0  0  0
    3.9850    1.1270    0.0000 O   0  0  0  0  0  0  0  0  0  0  0  0
    4.3975    0.4125    0.0000 C   0  0  0  0  0  0  0  0  0  0  0  0
    5.1119    0.0000    0.0000 C   0  0  0  0  0  0  0  0  0  0  0  0
    5.8265    0.4125    0.0000 C   0  0  0  0  0  0  0  0  0  0  0  0
    6.5409    0.0000    0.0000 C   0  0  0  0  0  0  0  0  0  0  0  0
    7.2554    0.4125    0.0000 C   0  0  0  0  0  0  0  0  0  0  0  0
    7.9699    0.0000    0.0000 C   0  0  0  0  0  0  0  0  0  0  0  0
    8.6844    0.4125    0.0000 C   0  0  0  0  0  0  0  0  0  0  0  0
    9.3988    0.0000    0.0000 C   0  0  0  0  0  0  0  0  0  0  0  0
   10.1134    0.4125    0.0000 C   0  0  0  0  0  0  0  0  0  0  0  0
   10.8278    0.0000    0.0000 C   0  0  0  0  0  0  0  0  0  0  0  0
   11.5423    0.4125    0.0000 C   0  0  0  0  0  0  0  0  0  0  0  0
   11.5423    1.2375    0.0000 O   0  0  0  0  0  0  0  0  0  0  0  0
   12.2568    0.0000    0.0000 O   0  0  0  0  0  0  0  0  0  0  0  0
  1  2  1  0  0  0  0
  2  3  1  0  0  0  0
  3  4  1  0  0  0  0
  4  5  1  0  0  0  0
  5  6  1  0  0  0  0
  6  7  2  0  0  0  0
  7  8  1  0  0  0  0
  8  9  1  0  0  0  0
  9 11  1  0  0  0  0
  9 10  1  0  0  0  0
 10 11  1  0  0  0  0
 11 12  1  0  0  0  0
 12 13  1  0  0  0  0
 13 14  2  0  0  0  0
 14 15  1  0  0  0  0
 15 16  1  0  0  0  0
 16 17  2  0  0  0  0
 17 18  1  0  0  0  0
 18 19  1  0  0  0  0
 19 20  1  0  0  0  0
 20 21  1  0  0  0  0
 21 22  2  0  0  0  0
 21 23  1  0  0  0  0
M  END
>  <CdId>
1

>  <Mol Weight>
320.47

>  <Formula>
C20H32O3

>  <Name>
11,12-epoxyeicosatrienoic acid

>  <Mol_ID>
201

>  <MolWeight>
320.47

>  <LogD>
3.11

$$$$
11-[1-hydroxy-2-(3-methyl-butylamino)-ethyl]-8-isopropyl-2-oxa-7,10- diaza-bicyc
  Mrv2113 02112212262D          

 31 32  0  0  0  0            999 V2000
    0.8646    1.0887    0.0000 C   0  0  0  0  0  0  0  0  0  0  0  0
    0.7607    1.9072    0.0000 C   0  0  0  0  0  0  0  0  0  0  0  0
    0.0000    2.2265    0.0000 C   0  0  0  0  0  0  0  0  0  0  0  0
    1.4176    2.4064    0.0000 C   0  0  0  0  0  0  0  0  0  0  0  0
    2.1783    2.0871    0.0000 C   0  0  0  0  0  0  0  0  0  0  0  0
    2.8352    2.5862    0.0000 N   0  0  0  0  0  0  0  0  0  0  0  0
    3.5959    2.2670    0.0000 C   0  0  0  0  0  0  0  0  0  0  0  0
    4.2528    2.7661    0.0000 C   0  0  0  0  0  0  0  0  0  0  0  0
    4.1489    3.5846    0.0000 O   0  0  0  0  0  0  0  0  0  0  0  0
    5.0136    2.4468    0.0000 C   0  0  0  0  0  0  0  0  0  0  0  0
    4.8995    1.8387    0.0000 C   0  0  0  0  0  0  0  0  0  0  0  0
    5.0460    1.2375    0.0000 C   0  0  0  0  0  0  0  0  0  0  0  0
    5.7604    1.6500    0.0000 C   0  0  0  0  0  0  0  0  0  0  0  0
    6.4749    1.2375    0.0000 C   0  0  0  0  0  0  0  0  0  0  0  0
    6.4749    0.4125    0.0000 C   0  0  0  0  0  0  0  0  0  0  0  0
    7.0688    0.5862    0.0000 O   0  0  0  0  0  0  0  0  0  0  0  0
    7.5385    0.9890    0.0000 C   0  0  0  0  0  0  0  0  0  0  0  0
    7.8049    1.5495    0.0000 C   0  0  0  0  0  0  0  0  0  0  0  0
    7.8049    2.1682    0.0000 C   0  0  0  0  0  0  0  0  0  0  0  0
    7.5620    2.7355    0.0000 C   0  0  0  0  0  0  0  0  0  0  0  0
    8.2320    3.2168    0.0000 O   0  0  0  0  0  0  0  0  0  0  0  0
    7.1033    3.1507    0.0000 N   0  0  0  0  0  0  0  0  0  0  0  0
    6.5143    3.3404    0.0000 C   0  0  0  0  0  0  0  0  0  0  0  0
    6.5960    4.1613    0.0000 C   0  0  0  0  0  0  0  0  0  0  0  0
    7.3479    4.5009    0.0000 C   0  0  0  0  0  0  0  0  0  0  0  0
    5.9260    4.6427    0.0000 C   0  0  0  0  0  0  0  0  0  0  0  0
    5.9015    3.2671    0.0000 C   0  0  0  0  0  0  0  0  0  0  0  0
    5.6360    4.0526    0.0000 O   0  0  0  0  0  0  0  0  0  0  0  0
    5.3657    2.9577    0.0000 N   0  0  0  0  0  0  0  0  0  0  0  0
    5.7604    0.0000    0.0000 C   0  0  0  0  0  0  0  0  0  0  0  0
    5.0460    0.4125    0.0000 C   0  0  0  0  0  0  0  0  0  0  0  0
  1  2  1  0  0  0  0
  2  3  1  0  0  0  0
  2  4  1  0  0  0  0
  4  5  1  0  0  0  0
  5  6  1  0  0  0  0
  6  7  1  0  0  0  0
  7  8  1  0  0  0  0
  8  9  1  0  0  0  0
  8 10  1  0  0  0  0
 10 29  1  0  0  0  0
 10 11  1  0  0  0  0
 11 12  1  0  0  0  0
 31 12  2  0  0  0  0
 12 13  1  0  0  0  0
 13 14  2  0  0  0  0
 14 15  1  0  0  0  0
 15 16  1  0  0  0  0
 16 17  1  0  0  0  0
 17 18  1  0  0  0  0
 18 19  1  0  0  0  0
 19 20  1  0  0  0  0
 20 21  2  0  0  0  0
 20 22  1  0  0  0  0
 22 23  1  0  0  0  0
 23 24  1  0  0  0  0
 24 25  1  0  0  0  0
 24 26  1  0  0  0  0
 23 27  1  0  0  0  0
 27 28  2  0  0  0  0
 27 29  1  0  0  0  0
 15 30  2  0  0  0  0
 31 30  1  0  0  0  0
M  END
>  <CdId>
2

>  <Mol Weight>
433.59

>  <Formula>
C24H39N3O4

>  <Name>
11-[1-hydroxy-2-(3-methyl-butylamino)-ethyl]-8-isopropyl-2-oxa-7,10- diaza-bicyc

>  <Mol_ID>
202

>  <MolWeight>
433.59

>  <LogD>
-0.17

$$$$
11-dehydrothromboxane B2
  Mrv2113 02112212262D          

 26 26  0  0  0  0            999 V2000
    0.0000    1.4290    0.0000 C   0  0  0  0  0  0  0  0  0  0  0  0
    0.4125    2.1435    0.0000 C   0  0  0  0  0  0  0  0  0  0  0  0
    1.2375    2.1435    0.0000 C   0  0  0  0  0  0  0  0  0  0  0  0
    1.6500    2.8579    0.0000 C   0  0  0  0  0  0  0  0  0  0  0  0
    2.4751    2.8579    0.0000 C   0  0  0  0  0  0  0  0  0  0  0  0
    2.8876    2.1435    0.0000 C   0  0  0  0  0  0  0  0  0  0  0  0
    2.4751    1.4290    0.0000 O   0  0  0  0  0  0  0  0  0  0  0  0
    3.7126    2.1435    0.0000 C   0  0  0  0  0  0  0  0  0  0  0  0
    4.1251    2.8579    0.0000 C   0  0  0  0  0  0  0  0  0  0  0  0
    3.7126    3.5724    0.0000 C   0  0  0  0  0  0  0  0  0  0  0  0
    2.8876    3.5724    0.0000 O   0  0  0  0  0  0  0  0  0  0  0  0
    2.4751    4.2869    0.0000 C   0  0  0  0  0  0  0  0  0  0  0  0
    1.6500    4.2869    0.0000 O   0  0  0  0  0  0  0  0  0  0  0  0
    2.8876    5.0014    0.0000 C   0  0  0  0  0  0  0  0  0  0  0  0
    3.7126    5.0014    0.0000 C   0  0  0  0  0  0  0  0  0  0  0  0
    4.1251    5.7159    0.0000 O   0  0  0  0  0  0  0  0  0  0  0  0
    4.1251    4.2869    0.0000 C   0  0  0  0  0  0  0  0  0  0  0  0
    4.9501    4.2869    0.0000 C   0  0  0  0  0  0  0  0  0  0  0  0
    5.3626    3.5724    0.0000 C   0  0  0  0  0  0  0  0  0  0  0  0
    4.9501    2.8579    0.0000 C   0  0  0  0  0  0  0  0  0  0  0  0
    5.3626    2.1435    0.0000 C   0  0  0  0  0  0  0  0  0  0  0  0
    4.9501    1.4290    0.0000 C   0  0  0  0  0  0  0  0  0  0  0  0
    5.3626    0.7145    0.0000 C   0  0  0  0  0  0  0  0  0  0  0  0
    6.1876    0.7145    0.0000 C   0  0  0  0  0  0  0  0  0  0  0  0
    6.6001    1.4290    0.0000 O   0  0  0  0  0  0  0  0  0  0  0  0
    6.6001    0.0000    0.0000 O   0  0  0  0  0  0  0  0  0  0  0  0
  1  2  1  0  0  0  0
  2  3  1  0  0  0  0
  3  4  1  0  0  0  0
  4  5  1  0  0  0  0
  5  6  1  0  0  0  0
  6  7  1  0  0  0  0
  6  8  1  0  0  0  0
  8  9  2  0  0  0  0
  9 10  1  0  0  0  0
 10 17  1  0  0  0  0
 10 11  1  0  0  0  0
 11 12  1  0  0  0  0
 12 13  2  0  0  0  0
 12 14  1  0  0  0  0
 14 15  1  0  0  0  0
 15 16  1  0  0  0  0
 15 17  1  0  0  0  0
 17 18  1  0  0  0  0
 18 19  1  0  0  0  0
 19 20  2  0  0  0  0
 20 21  1  0  0  0  0
 21 22  1  0  0  0  0
 22 23  1  0  0  0  0
 23 24  1  0  0  0  0
 24 25  2  0  0  0  0
 24 26  1  0  0  0  0
M  END
>  <CdId>
3

>  <Mol Weight>
368.47

>  <Formula>
C20H32O6

>  <Name>
11-dehydrothromboxane B2

>  <Mol_ID>
203

>  <MolWeight>
368.47

>  <LogD>
-0.06

$$$$
11-deoxydaunomycin
  Mrv2113 02112212262D          

 37 41  0  0  0  0            999 V2000
    7.8592    3.8822    0.0000 C   0  0  0  0  0  0  0  0  0  0  0  0
    7.1447    3.4697    0.0000 O   0  0  0  0  0  0  0  0  0  0  0  0
    7.1447    2.6447    0.0000 C   0  0  0  0  0  0  0  0  0  0  0  0
    7.8592    2.2322    0.0000 C   0  0  0  0  0  0  0  0  0  0  0  0
    7.8592    1.4072    0.0000 C   0  0  0  0  0  0  0  0  0  0  0  0
    7.1447    0.9947    0.0000 C   0  0  0  0  0  0  0  0  0  0  0  0
    6.4302    1.4072    0.0000 C   0  0  0  0  0  0  0  0  0  0  0  0
    5.7158    0.9947    0.0000 C   0  0  0  0  0  0  0  0  0  0  0  0
    5.7158    0.1697    0.0000 O   0  0  0  0  0  0  0  0  0  0  0  0
    5.0013    1.4072    0.0000 C   0  0  0  0  0  0  0  0  0  0  0  0
    4.2868    0.9947    0.0000 C   0  0  0  0  0  0  0  0  0  0  0  0
    3.5724    1.4072    0.0000 C   0  0  0  0  0  0  0  0  0  0  0  0
    2.8579    0.9947    0.0000 C   0  0  0  0  0  0  0  0  0  0  0  0
    2.1434    1.4072    0.0000 C   0  0  0  0  0  0  0  0  0  0  0  0
    1.3310    1.5505    0.0000 O   0  0  0  0  0  0  0  0  0  0  0  0
    2.1434    2.2322    0.0000 C   0  0  0  0  0  0  0  0  0  0  0  0
    2.8579    2.6447    0.0000 C   0  0  0  0  0  0  0  0  0  0  0  0
    2.8579    3.4697    0.0000 O   0  0  0  0  0  0  0  0  0  0  0  0
    2.1434    3.8822    0.0000 C   0  0  0  0  0  0  0  0  0  0  0  0
    1.4290    3.4697    0.0000 C   0  0  0  0  0  0  0  0  0  0  0  0
    0.7144    3.8822    0.0000 C   0  0  0  0  0  0  0  0  0  0  0  0
    0.0000    3.4697    0.0000 N   0  0  0  0  0  0  0  0  0  0  0  0
    0.7144    4.7072    0.0000 C   0  0  0  0  0  0  0  0  0  0  0  0
    0.0000    5.1197    0.0000 O   0  0  0  0  0  0  0  0  0  0  0  0
    1.4290    5.1197    0.0000 C   0  0  0  0  0  0  0  0  0  0  0  0
    1.4290    5.9447    0.0000 C   0  0  0  0  0  0  0  0  0  0  0  0
    2.1434    4.7072    0.0000 O   0  0  0  0  0  0  0  0  0  0  0  0
    3.5724    2.2322    0.0000 C   0  0  0  0  0  0  0  0  0  0  0  0
    4.2868    2.6447    0.0000 C   0  0  0  0  0  0  0  0  0  0  0  0
    4.2868    3.4697    0.0000 O   0  0  0  0  0  0  0  0  0  0  0  0
    5.0013    2.2322    0.0000 C   0  0  0  0  0  0  0  0  0  0  0  0
    5.7158    2.6447    0.0000 C   0  0  0  0  0  0  0  0  0  0  0  0
    5.7158    3.4697    0.0000 O   0  0  0  0  0  0  0  0  0  0  0  0
    6.4302    2.2322    0.0000 C   0  0  0  0  0  0  0  0  0  0  0  0
    1.8613    0.6320    0.0000 C   0  0  0  0  0  0  0  0  0  0  0  0
    2.3916    0.0000    0.0000 O   0  0  0  0  0  0  0  0  0  0  0  0
    1.0488    0.4888    0.0000 C   0  0  0  0  0  0  0  0  0  0  0  0
  1  2  1  0  0  0  0
  2  3  1  0  0  0  0
 34  3  2  0  0  0  0
  3  4  1  0  0  0  0
  4  5  2  0  0  0  0
  5  6  1  0  0  0  0
  6  7  2  0  0  0  0
 34  7  1  0  0  0  0
  7  8  1  0  0  0  0
  8  9  2  0  0  0  0
  8 10  1  0  0  0  0
 31 10  2  0  0  0  0
 10 11  1  0  0  0  0
 11 12  2  0  0  0  0
 12 28  1  0  0  0  0
 12 13  1  0  0  0  0
 13 14  1  0  0  0  0
 14 15  1  0  0  0  0
 14 16  1  0  0  0  0
 16 17  1  0  0  0  0
 17 18  1  0  0  0  0
 18 19  1  0  0  0  0
 19 27  1  0  0  0  0
 19 20  1  0  0  0  0
 20 21  1  0  0  0  0
 21 22  1  0  0  0  0
 21 23  1  0  0  0  0
 23 24  1  0  0  0  0
 23 25  1  0  0  0  0
 25 26  1  0  0  0  0
 25 27  1  0  0  0  0
 17 28  1  0  0  0  0
 28 29  2  0  0  0  0
 29 30  1  0  0  0  0
 31 29  1  0  0  0  0
 31 32  1  0  0  0  0
 32 33  2  0  0  0  0
 32 34  1  0  0  0  0
 35 14  1  0  0  0  0
 35 36  2  0  0  0  0
 35 37  1  0  0  0  0
M  END
>  <CdId>
4

>  <Mol Weight>
511.53

>  <Formula>
C27H29NO9

>  <Name>
11-deoxydaunomycin

>  <Mol_ID>
204

>  <MolWeight>
511.53

>  <LogD>
0.75

$$$$
11-NOR-DELTA8-TETRAHYDROCANNABINOL-9- CARBOXYLIC ACID
  Mrv2113 02112212262D          

 25 27  0  0  0  0            999 V2000
    8.2500    0.7144    0.0000 C   0  0  0  0  0  0  0  0  0  0  0  0
    7.4250    0.7144    0.0000 C   0  0  0  0  0  0  0  0  0  0  0  0
    7.0125    1.4290    0.0000 C   0  0  0  0  0  0  0  0  0  0  0  0
    6.1875    1.4290    0.0000 C   0  0  0  0  0  0  0  0  0  0  0  0
    5.7750    2.1434    0.0000 C   0  0  0  0  0  0  0  0  0  0  0  0
    4.9500    2.1434    0.0000 C   0  0  0  0  0  0  0  0  0  0  0  0
    4.5375    1.4290    0.0000 C   0  0  0  0  0  0  0  0  0  0  0  0
    3.7125    1.4290    0.0000 C   0  0  0  0  0  0  0  0  0  0  0  0
    3.3000    0.7144    0.0000 O   0  0  0  0  0  0  0  0  0  0  0  0
    3.3000    2.1434    0.0000 C   0  0  0  0  0  0  0  0  0  0  0  0
    2.4750    2.1434    0.0000 C   0  0  0  0  0  0  0  0  0  0  0  0
    2.0625    1.4290    0.0000 C   0  0  0  0  0  0  0  0  0  0  0  0
    1.2375    1.4290    0.0000 C   0  0  0  0  0  0  0  0  0  0  0  0
    0.8250    2.1434    0.0000 C   0  0  0  0  0  0  0  0  0  0  0  0
    1.2375    2.8579    0.0000 C   0  0  0  0  0  0  0  0  0  0  0  0
    2.0625    2.8579    0.0000 C   0  0  0  0  0  0  0  0  0  0  0  0
    2.4750    3.5724    0.0000 C   0  0  0  0  0  0  0  0  0  0  0  0
    1.6997    3.8545    0.0000 C   0  0  0  0  0  0  0  0  0  0  0  0
    2.6183    4.3848    0.0000 C   0  0  0  0  0  0  0  0  0  0  0  0
    3.3000    3.5724    0.0000 O   0  0  0  0  0  0  0  0  0  0  0  0
    3.7125    2.8579    0.0000 C   0  0  0  0  0  0  0  0  0  0  0  0
    4.5375    2.8579    0.0000 C   0  0  0  0  0  0  0  0  0  0  0  0
    0.8250    0.7144    0.0000 C   0  0  0  0  0  0  0  0  0  0  0  0
    1.2375    0.0000    0.0000 O   0  0  0  0  0  0  0  0  0  0  0  0
    0.0000    0.7144    0.0000 O   0  0  0  0  0  0  0  0  0  0  0  0
  1  2  1  0  0  0  0
  2  3  1  0  0  0  0
  3  4  1  0  0  0  0
  4  5  1  0  0  0  0
  5  6  1  0  0  0  0
  6 22  2  0  0  0  0
  6  7  1  0  0  0  0
  7  8  2  0  0  0  0
  8  9  1  0  0  0  0
  8 10  1  0  0  0  0
 10 21  2  0  0  0  0
 10 11  1  0  0  0  0
 11 16  1  0  0  0  0
 11 12  1  0  0  0  0
 12 13  1  0  0  0  0
 13 14  2  0  0  0  0
 14 15  1  0  0  0  0
 15 16  1  0  0  0  0
 16 17  1  0  0  0  0
 17 18  1  0  0  0  0
 17 19  1  0  0  0  0
 17 20  1  0  0  0  0
 20 21  1  0  0  0  0
 21 22  1  0  0  0  0
 13 23  1  0  0  0  0
 23 24  2  0  0  0  0
 23 25  1  0  0  0  0
M  END
>  <CdId>
5

>  <Mol Weight>
344.45

>  <Formula>
C21H28O4

>  <Name>
11-NOR-DELTA8-TETRAHYDROCANNABINOL-9- CARBOXYLIC ACID

>  <Mol_ID>
205

>  <MolWeight>
344.45

>  <LogD>
2.01

$$$$
12(S),20-diHETE
  Mrv2113 02112212262D          

 24 23  0  0  0  0            999 V2000
   13.5753    0.4125    0.0000 O   0  0  0  0  0  0  0  0  0  0  0  0
   12.8607    0.0000    0.0000 C   0  0  0  0  0  0  0  0  0  0  0  0
   12.1463    0.4125    0.0000 C   0  0  0  0  0  0  0  0  0  0  0  0
   11.4318    0.0000    0.0000 C   0  0  0  0  0  0  0  0  0  0  0  0
   10.7173    0.4125    0.0000 C   0  0  0  0  0  0  0  0  0  0  0  0
   10.0028    0.0000    0.0000 C   0  0  0  0  0  0  0  0  0  0  0  0
    9.2883    0.4125    0.0000 C   0  0  0  0  0  0  0  0  0  0  0  0
    8.5738    0.0000    0.0000 C   0  0  0  0  0  0  0  0  0  0  0  0
    7.8594    0.4125    0.0000 C   0  0  0  0  0  0  0  0  0  0  0  0
    7.8594    1.2375    0.0000 C   0  0  0  0  0  0  0  0  0  0  0  0
    8.5738    1.6500    0.0000 O   0  0  0  0  0  0  0  0  0  0  0  0
    7.1449    1.6500    0.0000 C   0  0  0  0  0  0  0  0  0  0  0  0
    7.1449    2.4751    0.0000 C   0  0  0  0  0  0  0  0  0  0  0  0
    6.4304    2.8876    0.0000 C   0  0  0  0  0  0  0  0  0  0  0  0
    5.7159    2.4751    0.0000 C   0  0  0  0  0  0  0  0  0  0  0  0
    5.0014    2.8876    0.0000 C   0  0  0  0  0  0  0  0  0  0  0  0
    4.2869    2.4751    0.0000 C   0  0  0  0  0  0  0  0  0  0  0  0
    3.5724    2.8876    0.0000 C   0  0  0  0  0  0  0  0  0  0  0  0
    2.8579    2.4751    0.0000 C   0  0  0  0  0  0  0  0  0  0  0  0
    2.1435    2.8876    0.0000 C   0  0  0  0  0  0  0  0  0  0  0  0
    1.4290    2.4751    0.0000 C   0  0  0  0  0  0  0  0  0  0  0  0
    0.7145    2.8876    0.0000 C   0  0  0  0  0  0  0  0  0  0  0  0
    0.7145    3.7126    0.0000 O   0  0  0  0  0  0  0  0  0  0  0  0
    0.0000    2.4751    0.0000 O   0  0  0  0  0  0  0  0  0  0  0  0
  1  2  1  0  0  0  0
  2  3  1  0  0  0  0
  3  4  1  0  0  0  0
  4  5  1  0  0  0  0
  5  6  1  0  0  0  0
  6  7  1  0  0  0  0
  7  8  2  0  0  0  0
  8  9  1  0  0  0  0
  9 10  1  0  0  0  0
 10 11  1  0  0  0  0
 10 12  1  0  0  0  0
 12 13  2  0  0  0  0
 13 14  1  0  0  0  0
 14 15  2  0  0  0  0
 15 16  1  0  0  0  0
 16 17  1  0  0  0  0
 17 18  2  0  0  0  0
 18 19  1  0  0  0  0
 19 20  1  0  0  0  0
 20 21  1  0  0  0  0
 21 22  1  0  0  0  0
 22 23  2  0  0  0  0
 22 24  1  0  0  0  0
M  END
>  <CdId>
6

>  <Mol Weight>
336.47

>  <Formula>
C20H32O4

>  <Name>
12(S),20-diHETE

>  <Mol_ID>
206

>  <MolWeight>
336.47

>  <LogD>
1.45

$$$$
12(S)-HETE
  Mrv2113 02112212262D          

 23 22  0  0  0  0            999 V2000
    0.0000    2.1434    0.0000 C   0  0  0  0  0  0  0  0  0  0  0  0
    0.8250    2.1434    0.0000 C   0  0  0  0  0  0  0  0  0  0  0  0
    1.2375    1.4290    0.0000 C   0  0  0  0  0  0  0  0  0  0  0  0
    2.0625    1.4290    0.0000 C   0  0  0  0  0  0  0  0  0  0  0  0
    2.4750    0.7144    0.0000 C   0  0  0  0  0  0  0  0  0  0  0  0
    3.3000    0.7144    0.0000 C   0  0  0  0  0  0  0  0  0  0  0  0
    3.7125    0.0000    0.0000 C   0  0  0  0  0  0  0  0  0  0  0  0
    4.5375    0.0000    0.0000 C   0  0  0  0  0  0  0  0  0  0  0  0
    4.9500    0.7144    0.0000 C   0  0  0  0  0  0  0  0  0  0  0  0
    4.5375    1.4290    0.0000 O   0  0  0  0  0  0  0  0  0  0  0  0
    5.7750    0.7144    0.0000 C   0  0  0  0  0  0  0  0  0  0  0  0
    6.1875    1.4290    0.0000 C   0  0  0  0  0  0  0  0  0  0  0  0
    7.0125    1.4290    0.0000 C   0  0  0  0  0  0  0  0  0  0  0  0
    7.4250    2.1434    0.0000 C   0  0  0  0  0  0  0  0  0  0  0  0
    8.2500    2.1434    0.0000 C   0  0  0  0  0  0  0  0  0  0  0  0
    8.6625    2.8579    0.0000 C   0  0  0  0  0  0  0  0  0  0  0  0
    9.4875    2.8579    0.0000 C   0  0  0  0  0  0  0  0  0  0  0  0
    9.9000    3.5724    0.0000 C   0  0  0  0  0  0  0  0  0  0  0  0
   10.7250    3.5724    0.0000 C   0  0  0  0  0  0  0  0  0  0  0  0
   11.1375    4.2868    0.0000 C   0  0  0  0  0  0  0  0  0  0  0  0
   11.9625    4.2868    0.0000 C   0  0  0  0  0  0  0  0  0  0  0  0
   12.3750    5.0013    0.0000 O   0  0  0  0  0  0  0  0  0  0  0  0
   12.3750    3.5724    0.0000 O   0  0  0  0  0  0  0  0  0  0  0  0
  1  2  1  0  0  0  0
  2  3  1  0  0  0  0
  3  4  1  0  0  0  0
  4  5  1  0  0  0  0
  5  6  1  0  0  0  0
  6  7  2  0  0  0  0
  7  8  1  0  0  0  0
  8  9  1  0  0  0  0
  9 10  1  0  0  0  0
  9 11  1  0  0  0  0
 11 12  2  0  0  0  0
 12 13  1  0  0  0  0
 13 14  2  0  0  0  0
 14 15  1  0  0  0  0
 15 16  1  0  0  0  0
 16 17  2  0  0  0  0
 17 18  1  0  0  0  0
 18 19  1  0  0  0  0
 19 20  1  0  0  0  0
 20 21  1  0  0  0  0
 21 22  2  0  0  0  0
 21 23  1  0  0  0  0
M  END
>  <CdId>
7

>  <Mol Weight>
320.47

>  <Formula>
C20H32O3

>  <Name>
12(S)-HETE

>  <Mol_ID>
207

>  <MolWeight>
320.47

>  <LogD>
2.88

$$$$
12(S)-HHT
  Mrv2113 02112212262D          

 20 19  0  0  0  0            999 V2000
    0.0000    0.8250    0.0000 C   0  0  0  0  0  0  0  0  0  0  0  0
    0.7145    1.2375    0.0000 C   0  0  0  0  0  0  0  0  0  0  0  0
    1.4290    0.8250    0.0000 C   0  0  0  0  0  0  0  0  0  0  0  0
    2.1435    1.2375    0.0000 C   0  0  0  0  0  0  0  0  0  0  0  0
    2.8579    0.8250    0.0000 C   0  0  0  0  0  0  0  0  0  0  0  0
    3.5724    1.2375    0.0000 C   0  0  0  0  0  0  0  0  0  0  0  0
    3.5724    2.0625    0.0000 O   0  0  0  0  0  0  0  0  0  0  0  0
    4.2869    0.8250    0.0000 C   0  0  0  0  0  0  0  0  0  0  0  0
    5.0014    1.2375    0.0000 C   0  0  0  0  0  0  0  0  0  0  0  0
    5.7159    0.8250    0.0000 C   0  0  0  0  0  0  0  0  0  0  0  0
    6.4304    1.2375    0.0000 C   0  0  0  0  0  0  0  0  0  0  0  0
    7.1449    0.8250    0.0000 C   0  0  0  0  0  0  0  0  0  0  0  0
    7.8594    1.2375    0.0000 C   0  0  0  0  0  0  0  0  0  0  0  0
    8.5738    0.8250    0.0000 C   0  0  0  0  0  0  0  0  0  0  0  0
    9.2883    1.2375    0.0000 C   0  0  0  0  0  0  0  0  0  0  0  0
   10.0028    0.8250    0.0000 C   0  0  0  0  0  0  0  0  0  0  0  0
   10.7173    1.2375    0.0000 C   0  0  0  0  0  0  0  0  0  0  0  0
   11.4318    0.8250    0.0000 C   0  0  0  0  0  0  0  0  0  0  0  0
   11.4318    0.0000    0.0000 O   0  0  0  0  0  0  0  0  0  0  0  0
   12.1463    1.2375    0.0000 O   0  0  0  0  0  0  0  0  0  0  0  0
  1  2  1  0  0  0  0
  2  3  1  0  0  0  0
  3  4  1  0  0  0  0
  4  5  1  0  0  0  0
  5  6  1  0  0  0  0
  6  7  1  0  0  0  0
  6  8  1  0  0  0  0
  8  9  2  0  0  0  0
  9 10  1  0  0  0  0
 10 11  2  0  0  0  0
 11 12  1  0  0  0  0
 12 13  1  0  0  0  0
 13 14  2  0  0  0  0
 14 15  1  0  0  0  0
 15 16  1  0  0  0  0
 16 17  1  0  0  0  0
 17 18  1  0  0  0  0
 18 19  2  0  0  0  0
 18 20  1  0  0  0  0
M  END
>  <CdId>
8

>  <Mol Weight>
280.41

>  <Formula>
C17H28O3

>  <Name>
12(S)-HHT

>  <Mol_ID>
208

>  <MolWeight>
280.41

>  <LogD>
1.91

$$$$
12(S)-HPETE
  Mrv2113 02112212262D          

 24 23  0  0  0  0            999 V2000
   12.3750    1.4290    0.0000 C   0  0  0  0  0  0  0  0  0  0  0  0
   11.5500    1.4290    0.0000 C   0  0  0  0  0  0  0  0  0  0  0  0
   11.1375    2.1434    0.0000 C   0  0  0  0  0  0  0  0  0  0  0  0
   10.3125    2.1434    0.0000 C   0  0  0  0  0  0  0  0  0  0  0  0
    9.9000    2.8579    0.0000 C   0  0  0  0  0  0  0  0  0  0  0  0
    9.0750    2.8579    0.0000 C   0  0  0  0  0  0  0  0  0  0  0  0
    8.6625    3.5724    0.0000 C   0  0  0  0  0  0  0  0  0  0  0  0
    7.8375    3.5724    0.0000 C   0  0  0  0  0  0  0  0  0  0  0  0
    7.4250    4.2868    0.0000 C   0  0  0  0  0  0  0  0  0  0  0  0
    7.8375    5.0013    0.0000 O   0  0  0  0  0  0  0  0  0  0  0  0
    7.4250    5.7158    0.0000 O   0  0  0  0  0  0  0  0  0  0  0  0
    6.6000    4.2868    0.0000 C   0  0  0  0  0  0  0  0  0  0  0  0
    6.1875    3.5724    0.0000 C   0  0  0  0  0  0  0  0  0  0  0  0
    5.3625    3.5724    0.0000 C   0  0  0  0  0  0  0  0  0  0  0  0
    4.9500    2.8579    0.0000 C   0  0  0  0  0  0  0  0  0  0  0  0
    4.1250    2.8579    0.0000 C   0  0  0  0  0  0  0  0  0  0  0  0
    3.7125    2.1434    0.0000 C   0  0  0  0  0  0  0  0  0  0  0  0
    2.8875    2.1434    0.0000 C   0  0  0  0  0  0  0  0  0  0  0  0
    2.4750    1.4290    0.0000 C   0  0  0  0  0  0  0  0  0  0  0  0
    1.6500    1.4290    0.0000 C   0  0  0  0  0  0  0  0  0  0  0  0
    1.2375    0.7145    0.0000 C   0  0  0  0  0  0  0  0  0  0  0  0
    0.4125    0.7145    0.0000 C   0  0  0  0  0  0  0  0  0  0  0  0
    0.0000    0.0000    0.0000 O   0  0  0  0  0  0  0  0  0  0  0  0
    0.0000    1.4290    0.0000 O   0  0  0  0  0  0  0  0  0  0  0  0
  1  2  1  0  0  0  0
  2  3  1  0  0  0  0
  3  4  1  0  0  0  0
  4  5  1  0  0  0  0
  5  6  1  0  0  0  0
  6  7  2  0  0  0  0
  7  8  1  0  0  0  0
  8  9  1  0  0  0  0
  9 10  1  0  0  0  0
 10 11  1  0  0  0  0
  9 12  1  0  0  0  0
 12 13  2  0  0  0  0
 13 14  1  0  0  0  0
 14 15  2  0  0  0  0
 15 16  1  0  0  0  0
 16 17  1  0  0  0  0
 17 18  2  0  0  0  0
 18 19  1  0  0  0  0
 19 20  1  0  0  0  0
 20 21  1  0  0  0  0
 21 22  1  0  0  0  0
 22 23  2  0  0  0  0
 22 24  1  0  0  0  0
M  END
>  <CdId>
9

>  <Mol Weight>
336.47

>  <Formula>
C20H32O4

>  <Name>
12(S)-HPETE

>  <Mol_ID>
209

>  <MolWeight>
336.47

>  <LogD>
3.33

$$$$
12,13-EODE-leukotoxin B
  Mrv2113 02112212262D          

 21 21  0  0  0  0            999 V2000
   12.9713    1.1270    0.0000 C   0  0  0  0  0  0  0  0  0  0  0  0
   12.2568    0.7145    0.0000 C   0  0  0  0  0  0  0  0  0  0  0  0
   11.5423    1.1270    0.0000 C   0  0  0  0  0  0  0  0  0  0  0  0
   10.8278    0.7145    0.0000 C   0  0  0  0  0  0  0  0  0  0  0  0
   10.1134    1.1270    0.0000 C   0  0  0  0  0  0  0  0  0  0  0  0
    9.3988    0.7145    0.0000 C   0  0  0  0  0  0  0  0  0  0  0  0
    8.9863    0.0000    0.0000 O   0  0  0  0  0  0  0  0  0  0  0  0
    8.5738    0.7145    0.0000 C   0  0  0  0  0  0  0  0  0  0  0  0
    7.8594    1.1270    0.0000 C   0  0  0  0  0  0  0  0  0  0  0  0
    7.1449    0.7145    0.0000 C   0  0  0  0  0  0  0  0  0  0  0  0
    6.4304    1.1270    0.0000 C   0  0  0  0  0  0  0  0  0  0  0  0
    5.7159    0.7145    0.0000 C   0  0  0  0  0  0  0  0  0  0  0  0
    5.0014    1.1270    0.0000 C   0  0  0  0  0  0  0  0  0  0  0  0
    4.2869    0.7145    0.0000 C   0  0  0  0  0  0  0  0  0  0  0  0
    3.5724    1.1270    0.0000 C   0  0  0  0  0  0  0  0  0  0  0  0
    2.8579    0.7145    0.0000 C   0  0  0  0  0  0  0  0  0  0  0  0
    2.1435    1.1270    0.0000 C   0  0  0  0  0  0  0  0  0  0  0  0
    1.4290    0.7145    0.0000 C   0  0  0  0  0  0  0  0  0  0  0  0
    0.7145    1.1270    0.0000 C   0  0  0  0  0  0  0  0  0  0  0  0
    0.7145    1.9520    0.0000 O   0  0  0  0  0  0  0  0  0  0  0  0
    0.0000    0.7145    0.0000 O   0  0  0  0  0  0  0  0  0  0  0  0
  1  2  1  0  0  0  0
  2  3  1  0  0  0  0
  3  4  1  0  0  0  0
  4  5  1  0  0  0  0
  5  6  1  0  0  0  0
  6  8  1  0  0  0  0
  6  7  1  0  0  0  0
  7  8  1  0  0  0  0
  8  9  1  0  0  0  0
  9 10  1  0  0  0  0
 10 11  2  0  0  0  0
 11 12  1  0  0  0  0
 12 13  1  0  0  0  0
 13 14  1  0  0  0  0
 14 15  1  0  0  0  0
 15 16  1  0  0  0  0
 16 17  1  0  0  0  0
 17 18  1  0  0  0  0
 18 19  1  0  0  0  0
 19 20  2  0  0  0  0
 19 21  1  0  0  0  0
M  END
>  <CdId>
10

>  <Mol Weight>
296.45

>  <Formula>
C18H32O3

>  <Name>
12,13-EODE-leukotoxin B

>  <Mol_ID>
210

>  <MolWeight>
296.45

>  <LogD>
3.10

$$$$
12-Acetoxycalanolide A
  Mrv2113 02112212262D          

 30 33  0  0  0  0            999 V2000
    4.2868    6.1875    0.0000 C   0  0  0  0  0  0  0  0  0  0  0  0
    4.2868    5.3625    0.0000 C   0  0  0  0  0  0  0  0  0  0  0  0
    3.5724    4.9500    0.0000 C   0  0  0  0  0  0  0  0  0  0  0  0
    3.5724    4.1250    0.0000 C   0  0  0  0  0  0  0  0  0  0  0  0
    4.2868    3.7125    0.0000 C   0  0  0  0  0  0  0  0  0  0  0  0
    4.2868    2.8875    0.0000 C   0  0  0  0  0  0  0  0  0  0  0  0
    5.0013    2.4750    0.0000 O   0  0  0  0  0  0  0  0  0  0  0  0
    3.5724    2.4750    0.0000 O   0  0  0  0  0  0  0  0  0  0  0  0
    2.8579    2.8875    0.0000 C   0  0  0  0  0  0  0  0  0  0  0  0
    2.1434    2.4750    0.0000 C   0  0  0  0  0  0  0  0  0  0  0  0
    2.1434    1.6500    0.0000 C   0  0  0  0  0  0  0  0  0  0  0  0
    2.8579    1.2375    0.0000 O   0  0  0  0  0  0  0  0  0  0  0  0
    2.8579    0.4125    0.0000 C   0  0  0  0  0  0  0  0  0  0  0  0
    2.1434    0.0000    0.0000 O   0  0  0  0  0  0  0  0  0  0  0  0
    3.5724    0.0000    0.0000 C   0  0  0  0  0  0  0  0  0  0  0  0
    1.4290    1.2375    0.0000 C   0  0  0  0  0  0  0  0  0  0  0  0
    1.4290    0.4125    0.0000 C   0  0  0  0  0  0  0  0  0  0  0  0
    0.7144    1.6500    0.0000 C   0  0  0  0  0  0  0  0  0  0  0  0
    0.0000    1.2375    0.0000 C   0  0  0  0  0  0  0  0  0  0  0  0
    0.7144    2.4750    0.0000 O   0  0  0  0  0  0  0  0  0  0  0  0
    1.4290    2.8875    0.0000 C   0  0  0  0  0  0  0  0  0  0  0  0
    1.4290    3.7125    0.0000 C   0  0  0  0  0  0  0  0  0  0  0  0
    0.7144    4.1250    0.0000 C   0  0  0  0  0  0  0  0  0  0  0  0
    0.7144    4.9500    0.0000 C   0  0  0  0  0  0  0  0  0  0  0  0
    1.4290    5.3625    0.0000 C   0  0  0  0  0  0  0  0  0  0  0  0
    1.9593    5.9945    0.0000 C   0  0  0  0  0  0  0  0  0  0  0  0
    0.8987    5.9945    0.0000 C   0  0  0  0  0  0  0  0  0  0  0  0
    2.1434    4.9500    0.0000 O   0  0  0  0  0  0  0  0  0  0  0  0
    2.1434    4.1250    0.0000 C   0  0  0  0  0  0  0  0  0  0  0  0
    2.8579    3.7125    0.0000 C   0  0  0  0  0  0  0  0  0  0  0  0
  1  2  1  0  0  0  0
  2  3  1  0  0  0  0
  3  4  1  0  0  0  0
  4 30  1  0  0  0  0
  4  5  2  0  0  0  0
  5  6  1  0  0  0  0
  6  7  2  0  0  0  0
  6  8  1  0  0  0  0
  8  9  1  0  0  0  0
  9 30  2  0  0  0  0
  9 10  1  0  0  0  0
 10 21  2  0  0  0  0
 10 11  1  0  0  0  0
 11 12  1  0  0  0  0
 12 13  1  0  0  0  0
 13 14  2  0  0  0  0
 13 15  1  0  0  0  0
 11 16  1  0  0  0  0
 16 17  1  0  0  0  0
 16 18  1  0  0  0  0
 18 19  1  0  0  0  0
 18 20  1  0  0  0  0
 20 21  1  0  0  0  0
 21 22  1  0  0  0  0
 22 29  2  0  0  0  0
 22 23  1  0  0  0  0
 23 24  2  0  0  0  0
 24 25  1  0  0  0  0
 25 26  1  0  0  0  0
 25 27  1  0  0  0  0
 25 28  1  0  0  0  0
 28 29  1  0  0  0  0
 29 30  1  0  0  0  0
M  END
>  <CdId>
11

>  <Mol Weight>
412.48

>  <Formula>
C24H28O6

>  <Name>
12-Acetoxycalanolide A

>  <Mol_ID>
211

>  <MolWeight>
412.48

>  <LogD>
4.65

$$$$
12-Amino-7,8-dihydro-calanolide B
  Mrv2113 02112212262D          

 27 30  0  0  0  0            999 V2000
    0.7144    0.0000    0.0000 C   0  0  0  0  0  0  0  0  0  0  0  0
    0.7144    0.8250    0.0000 C   0  0  0  0  0  0  0  0  0  0  0  0
    1.4290    1.2375    0.0000 C   0  0  0  0  0  0  0  0  0  0  0  0
    1.4290    2.0625    0.0000 C   0  0  0  0  0  0  0  0  0  0  0  0
    0.7144    2.4750    0.0000 C   0  0  0  0  0  0  0  0  0  0  0  0
    0.7144    3.3000    0.0000 C   0  0  0  0  0  0  0  0  0  0  0  0
    0.0000    3.7125    0.0000 O   0  0  0  0  0  0  0  0  0  0  0  0
    1.4290    3.7125    0.0000 O   0  0  0  0  0  0  0  0  0  0  0  0
    2.1434    3.3000    0.0000 C   0  0  0  0  0  0  0  0  0  0  0  0
    2.8579    3.7125    0.0000 C   0  0  0  0  0  0  0  0  0  0  0  0
    2.8579    4.5375    0.0000 C   0  0  0  0  0  0  0  0  0  0  0  0
    2.1434    4.9500    0.0000 N   0  0  0  0  0  0  0  0  0  0  0  0
    3.5724    4.9500    0.0000 C   0  0  0  0  0  0  0  0  0  0  0  0
    3.5724    5.7750    0.0000 C   0  0  0  0  0  0  0  0  0  0  0  0
    4.2868    4.5375    0.0000 C   0  0  0  0  0  0  0  0  0  0  0  0
    5.0013    4.9500    0.0000 C   0  0  0  0  0  0  0  0  0  0  0  0
    4.2868    3.7125    0.0000 O   0  0  0  0  0  0  0  0  0  0  0  0
    3.5724    3.3000    0.0000 C   0  0  0  0  0  0  0  0  0  0  0  0
    3.5724    2.4750    0.0000 C   0  0  0  0  0  0  0  0  0  0  0  0
    4.2868    2.0625    0.0000 C   0  0  0  0  0  0  0  0  0  0  0  0
    4.2868    1.2375    0.0000 C   0  0  0  0  0  0  0  0  0  0  0  0
    3.5724    0.8250    0.0000 C   0  0  0  0  0  0  0  0  0  0  0  0
    3.0421    0.1930    0.0000 C   0  0  0  0  0  0  0  0  0  0  0  0
    4.1027    0.1930    0.0000 C   0  0  0  0  0  0  0  0  0  0  0  0
    2.8579    1.2375    0.0000 O   0  0  0  0  0  0  0  0  0  0  0  0
    2.8579    2.0625    0.0000 C   0  0  0  0  0  0  0  0  0  0  0  0
    2.1434    2.4750    0.0000 C   0  0  0  0  0  0  0  0  0  0  0  0
  1  2  1  0  0  0  0
  2  3  1  0  0  0  0
  3  4  1  0  0  0  0
  4 27  1  0  0  0  0
  4  5  2  0  0  0  0
  5  6  1  0  0  0  0
  6  7  2  0  0  0  0
  6  8  1  0  0  0  0
  8  9  1  0  0  0  0
  9 27  2  0  0  0  0
  9 10  1  0  0  0  0
 10 18  2  0  0  0  0
 10 11  1  0  0  0  0
 11 12  1  0  0  0  0
 11 13  1  0  0  0  0
 13 14  1  0  0  0  0
 13 15  1  0  0  0  0
 15 16  1  0  0  0  0
 15 17  1  0  0  0  0
 17 18  1  0  0  0  0
 18 19  1  0  0  0  0
 19 26  2  0  0  0  0
 19 20  1  0  0  0  0
 20 21  1  0  0  0  0
 21 22  1  0  0  0  0
 22 23  1  0  0  0  0
 22 24  1  0  0  0  0
 22 25  1  0  0  0  0
 25 26  1  0  0  0  0
 26 27  1  0  0  0  0
M  END
>  <CdId>
12

>  <Mol Weight>
371.48

>  <Formula>
C22H29NO4

>  <Name>
12-Amino-7,8-dihydro-calanolide B

>  <Mol_ID>
212

>  <MolWeight>
371.48

>  <LogD>
2.99

$$$$
12-Azidocalanolide B
  Mrv2113 02112212262D          

 29 32  0  0  0  0            999 V2000
    0.7144    0.0000    0.0000 C   0  0  0  0  0  0  0  0  0  0  0  0
    0.7144    0.8250    0.0000 C   0  0  0  0  0  0  0  0  0  0  0  0
    1.4290    1.2375    0.0000 C   0  0  0  0  0  0  0  0  0  0  0  0
    1.4290    2.0625    0.0000 C   0  0  0  0  0  0  0  0  0  0  0  0
    0.7144    2.4750    0.0000 C   0  0  0  0  0  0  0  0  0  0  0  0
    0.7144    3.3000    0.0000 C   0  0  0  0  0  0  0  0  0  0  0  0
    0.0000    3.7125    0.0000 O   0  0  0  0  0  0  0  0  0  0  0  0
    1.4290    3.7125    0.0000 O   0  0  0  0  0  0  0  0  0  0  0  0
    2.1434    3.3000    0.0000 C   0  0  0  0  0  0  0  0  0  0  0  0
    2.8579    3.7125    0.0000 C   0  0  0  0  0  0  0  0  0  0  0  0
    2.8579    4.5375    0.0000 C   0  0  0  0  0  0  0  0  0  0  0  0
    2.1434    4.9500    0.0000 N   0  0  0  0  0  0  0  0  0  0  0  0
    2.1434    5.7750    0.0000 N   0  0  0  0  0  0  0  0  0  0  0  0
    2.1434    6.6000    0.0000 N   0  0  0  0  0  0  0  0  0  0  0  0
    3.5724    4.9500    0.0000 C   0  0  0  0  0  0  0  0  0  0  0  0
    3.5724    5.7750    0.0000 C   0  0  0  0  0  0  0  0  0  0  0  0
    4.2868    4.5375    0.0000 C   0  0  0  0  0  0  0  0  0  0  0  0
    5.0013    4.9500    0.0000 C   0  0  0  0  0  0  0  0  0  0  0  0
    4.2868    3.7125    0.0000 O   0  0  0  0  0  0  0  0  0  0  0  0
    3.5724    3.3000    0.0000 C   0  0  0  0  0  0  0  0  0  0  0  0
    3.5724    2.4750    0.0000 C   0  0  0  0  0  0  0  0  0  0  0  0
    4.2868    2.0625    0.0000 C   0  0  0  0  0  0  0  0  0  0  0  0
    4.2868    1.2375    0.0000 C   0  0  0  0  0  0  0  0  0  0  0  0
    3.5724    0.8250    0.0000 C   0  0  0  0  0  0  0  0  0  0  0  0
    3.0421    0.1930    0.0000 C   0  0  0  0  0  0  0  0  0  0  0  0
    4.1027    0.1930    0.0000 C   0  0  0  0  0  0  0  0  0  0  0  0
    2.8579    1.2375    0.0000 O   0  0  0  0  0  0  0  0  0  0  0  0
    2.8579    2.0625    0.0000 C   0  0  0  0  0  0  0  0  0  0  0  0
    2.1434    2.4750    0.0000 C   0  0  0  0  0  0  0  0  0  0  0  0
  1  2  1  0  0  0  0
  2  3  1  0  0  0  0
  3  4  1  0  0  0  0
  4 29  1  0  0  0  0
  4  5  2  0  0  0  0
  5  6  1  0  0  0  0
  6  7  2  0  0  0  0
  6  8  1  0  0  0  0
  8  9  1  0  0  0  0
  9 29  2  0  0  0  0
  9 10  1  0  0  0  0
 10 20  2  0  0  0  0
 10 11  1  0  0  0  0
 11 12  1  0  0  0  0
 12 13  2  0  0  0  0
 13 14  3  0  0  0  0
 11 15  1  0  0  0  0
 15 16  1  0  0  0  0
 15 17  1  0  0  0  0
 17 18  1  0  0  0  0
 17 19  1  0  0  0  0
 19 20  1  0  0  0  0
 20 21  1  0  0  0  0
 21 28  2  0  0  0  0
 21 22  1  0  0  0  0
 22 23  2  0  0  0  0
 23 24  1  0  0  0  0
 24 25  1  0  0  0  0
 24 26  1  0  0  0  0
 24 27  1  0  0  0  0
 27 28  1  0  0  0  0
 28 29  1  0  0  0  0
M  END
>  <CdId>
13

>  <Mol Weight>
395.46

>  <Formula>
C22H25N3O4

>  <Name>
12-Azidocalanolide B

>  <Mol_ID>
213

>  <MolWeight>
395.46

>  <LogD>
5.37

$$$$
12-methoxydodecanoic acid
  Mrv2113 02112212262D          

 16 15  0  0  0  0            999 V2000
    0.0000    0.0000    0.0000 C   0  0  0  0  0  0  0  0  0  0  0  0
    0.7145    0.4125    0.0000 O   0  0  0  0  0  0  0  0  0  0  0  0
    1.4290    0.0000    0.0000 C   0  0  0  0  0  0  0  0  0  0  0  0
    2.1435    0.4125    0.0000 C   0  0  0  0  0  0  0  0  0  0  0  0
    2.8579    0.0000    0.0000 C   0  0  0  0  0  0  0  0  0  0  0  0
    3.5724    0.4125    0.0000 C   0  0  0  0  0  0  0  0  0  0  0  0
    4.2869    0.0000    0.0000 C   0  0  0  0  0  0  0  0  0  0  0  0
    5.0014    0.4125    0.0000 C   0  0  0  0  0  0  0  0  0  0  0  0
    5.7159    0.0000    0.0000 C   0  0  0  0  0  0  0  0  0  0  0  0
    6.4304    0.4125    0.0000 C   0  0  0  0  0  0  0  0  0  0  0  0
    7.1449    0.0000    0.0000 C   0  0  0  0  0  0  0  0  0  0  0  0
    7.8594    0.4125    0.0000 C   0  0  0  0  0  0  0  0  0  0  0  0
    8.5738    0.0000    0.0000 C   0  0  0  0  0  0  0  0  0  0  0  0
    9.2883    0.4125    0.0000 C   0  0  0  0  0  0  0  0  0  0  0  0
    9.2883    1.2375    0.0000 O   0  0  0  0  0  0  0  0  0  0  0  0
   10.0028    0.0000    0.0000 O   0  0  0  0  0  0  0  0  0  0  0  0
  1  2  1  0  0  0  0
  2  3  1  0  0  0  0
  3  4  1  0  0  0  0
  4  5  1  0  0  0  0
  5  6  1  0  0  0  0
  6  7  1  0  0  0  0
  7  8  1  0  0  0  0
  8  9  1  0  0  0  0
  9 10  1  0  0  0  0
 10 11  1  0  0  0  0
 11 12  1  0  0  0  0
 12 13  1  0  0  0  0
 13 14  1  0  0  0  0
 14 15  2  0  0  0  0
 14 16  1  0  0  0  0
M  END
>  <CdId>
14

>  <Mol Weight>
230.35

>  <Formula>
C13H26O3

>  <Name>
12-methoxydodecanoic acid

>  <Mol_ID>
214

>  <MolWeight>
230.35

>  <LogD>
1.27

$$$$
12-Oxocalanolide A
  Mrv2113 02112212262D          

 27 30  0  0  0  0            999 V2000
    0.7144    0.0000    0.0000 C   0  0  0  0  0  0  0  0  0  0  0  0
    0.7144    0.8250    0.0000 C   0  0  0  0  0  0  0  0  0  0  0  0
    1.4290    1.2375    0.0000 C   0  0  0  0  0  0  0  0  0  0  0  0
    1.4290    2.0625    0.0000 C   0  0  0  0  0  0  0  0  0  0  0  0
    0.7144    2.4750    0.0000 C   0  0  0  0  0  0  0  0  0  0  0  0
    0.7144    3.3000    0.0000 C   0  0  0  0  0  0  0  0  0  0  0  0
    0.0000    3.7125    0.0000 O   0  0  0  0  0  0  0  0  0  0  0  0
    1.4290    3.7125    0.0000 O   0  0  0  0  0  0  0  0  0  0  0  0
    2.1434    3.3000    0.0000 C   0  0  0  0  0  0  0  0  0  0  0  0
    2.8579    3.7125    0.0000 C   0  0  0  0  0  0  0  0  0  0  0  0
    2.8579    4.5375    0.0000 C   0  0  0  0  0  0  0  0  0  0  0  0
    2.1434    4.9500    0.0000 O   0  0  0  0  0  0  0  0  0  0  0  0
    3.5724    4.9500    0.0000 C   0  0  0  0  0  0  0  0  0  0  0  0
    3.5724    5.7750    0.0000 C   0  0  0  0  0  0  0  0  0  0  0  0
    4.2868    4.5375    0.0000 C   0  0  0  0  0  0  0  0  0  0  0  0
    5.0013    4.9500    0.0000 C   0  0  0  0  0  0  0  0  0  0  0  0
    4.2868    3.7125    0.0000 O   0  0  0  0  0  0  0  0  0  0  0  0
    3.5724    3.3000    0.0000 C   0  0  0  0  0  0  0  0  0  0  0  0
    3.5724    2.4750    0.0000 C   0  0  0  0  0  0  0  0  0  0  0  0
    4.2868    2.0625    0.0000 C   0  0  0  0  0  0  0  0  0  0  0  0
    4.2868    1.2375    0.0000 C   0  0  0  0  0  0  0  0  0  0  0  0
    3.5724    0.8250    0.0000 C   0  0  0  0  0  0  0  0  0  0  0  0
    3.0421    0.1930    0.0000 C   0  0  0  0  0  0  0  0  0  0  0  0
    4.1027    0.1930    0.0000 C   0  0  0  0  0  0  0  0  0  0  0  0
    2.8579    1.2375    0.0000 O   0  0  0  0  0  0  0  0  0  0  0  0
    2.8579    2.0625    0.0000 C   0  0  0  0  0  0  0  0  0  0  0  0
    2.1434    2.4750    0.0000 C   0  0  0  0  0  0  0  0  0  0  0  0
  1  2  1  0  0  0  0
  2  3  1  0  0  0  0
  3  4  1  0  0  0  0
  4 27  1  0  0  0  0
  4  5  2  0  0  0  0
  5  6  1  0  0  0  0
  6  7  2  0  0  0  0
  6  8  1  0  0  0  0
  8  9  1  0  0  0  0
  9 27  2  0  0  0  0
  9 10  1  0  0  0  0
 10 18  2  0  0  0  0
 10 11  1  0  0  0  0
 11 12  2  0  0  0  0
 11 13  1  0  0  0  0
 13 14  1  0  0  0  0
 13 15  1  0  0  0  0
 15 16  1  0  0  0  0
 15 17  1  0  0  0  0
 17 18  1  0  0  0  0
 18 19  1  0  0  0  0
 19 26  2  0  0  0  0
 19 20  1  0  0  0  0
 20 21  2  0  0  0  0
 21 22  1  0  0  0  0
 22 23  1  0  0  0  0
 22 24  1  0  0  0  0
 22 25  1  0  0  0  0
 25 26  1  0  0  0  0
 26 27  1  0  0  0  0
M  END
>  <CdId>
15

>  <Mol Weight>
368.43

>  <Formula>
C22H24O5

>  <Name>
12-Oxocalanolide A

>  <Mol_ID>
215

>  <MolWeight>
368.43

>  <LogD>
4.59

$$$$
12-Thiocalanolide B
  Mrv2113 02112212262D          

 27 30  0  0  0  0            999 V2000
    0.7144    0.0000    0.0000 C   0  0  0  0  0  0  0  0  0  0  0  0
    0.7144    0.8250    0.0000 C   0  0  0  0  0  0  0  0  0  0  0  0
    1.4290    1.2375    0.0000 C   0  0  0  0  0  0  0  0  0  0  0  0
    1.4290    2.0625    0.0000 C   0  0  0  0  0  0  0  0  0  0  0  0
    0.7144    2.4750    0.0000 C   0  0  0  0  0  0  0  0  0  0  0  0
    0.7144    3.3000    0.0000 C   0  0  0  0  0  0  0  0  0  0  0  0
    0.0000    3.7125    0.0000 O   0  0  0  0  0  0  0  0  0  0  0  0
    1.4290    3.7125    0.0000 O   0  0  0  0  0  0  0  0  0  0  0  0
    2.1434    3.3000    0.0000 C   0  0  0  0  0  0  0  0  0  0  0  0
    2.8579    3.7125    0.0000 C   0  0  0  0  0  0  0  0  0  0  0  0
    2.8579    4.5375    0.0000 C   0  0  0  0  0  0  0  0  0  0  0  0
    2.1434    4.9500    0.0000 S   0  0  0  0  0  0  0  0  0  0  0  0
    3.5724    4.9500    0.0000 C   0  0  0  0  0  0  0  0  0  0  0  0
    3.5724    5.7750    0.0000 C   0  0  0  0  0  0  0  0  0  0  0  0
    4.2868    4.5375    0.0000 C   0  0  0  0  0  0  0  0  0  0  0  0
    5.0013    4.9500    0.0000 C   0  0  0  0  0  0  0  0  0  0  0  0
    4.2868    3.7125    0.0000 O   0  0  0  0  0  0  0  0  0  0  0  0
    3.5724    3.3000    0.0000 C   0  0  0  0  0  0  0  0  0  0  0  0
    3.5724    2.4750    0.0000 C   0  0  0  0  0  0  0  0  0  0  0  0
    4.2868    2.0625    0.0000 C   0  0  0  0  0  0  0  0  0  0  0  0
    4.2868    1.2375    0.0000 C   0  0  0  0  0  0  0  0  0  0  0  0
    3.5724    0.8250    0.0000 C   0  0  0  0  0  0  0  0  0  0  0  0
    3.0421    0.1930    0.0000 C   0  0  0  0  0  0  0  0  0  0  0  0
    4.1027    0.1930    0.0000 C   0  0  0  0  0  0  0  0  0  0  0  0
    2.8579    1.2375    0.0000 O   0  0  0  0  0  0  0  0  0  0  0  0
    2.8579    2.0625    0.0000 C   0  0  0  0  0  0  0  0  0  0  0  0
    2.1434    2.4750    0.0000 C   0  0  0  0  0  0  0  0  0  0  0  0
  1  2  1  0  0  0  0
  2  3  1  0  0  0  0
  3  4  1  0  0  0  0
  4 27  1  0  0  0  0
  4  5  2  0  0  0  0
  5  6  1  0  0  0  0
  6  7  2  0  0  0  0
  6  8  1  0  0  0  0
  8  9  1  0  0  0  0
  9 27  2  0  0  0  0
  9 10  1  0  0  0  0
 10 18  2  0  0  0  0
 10 11  1  0  0  0  0
 11 12  1  0  0  0  0
 11 13  1  0  0  0  0
 13 14  1  0  0  0  0
 13 15  1  0  0  0  0
 15 16  1  0  0  0  0
 15 17  1  0  0  0  0
 17 18  1  0  0  0  0
 18 19  1  0  0  0  0
 19 26  2  0  0  0  0
 19 20  1  0  0  0  0
 20 21  2  0  0  0  0
 21 22  1  0  0  0  0
 22 23  1  0  0  0  0
 22 24  1  0  0  0  0
 22 25  1  0  0  0  0
 25 26  1  0  0  0  0
 26 27  1  0  0  0  0
M  END
>  <CdId>
16

>  <Mol Weight>
386.51

>  <Formula>
C22H26O4S

>  <Name>
12-Thiocalanolide B

>  <Mol_ID>
216

>  <MolWeight>
386.50

>  <LogD>
5.35

$$$$
13(?)-azaprostanoic acid
  Mrv2113 02112212262D          

 22 22  0  0  0  0            999 V2000
   11.1775    3.1603    0.0000 C   0  0  0  0  0  0  0  0  0  0  0  0
   10.4630    2.7478    0.0000 C   0  0  0  0  0  0  0  0  0  0  0  0
    9.7486    3.1603    0.0000 C   0  0  0  0  0  0  0  0  0  0  0  0
    9.0340    2.7478    0.0000 C   0  0  0  0  0  0  0  0  0  0  0  0
    8.3196    3.1603    0.0000 C   0  0  0  0  0  0  0  0  0  0  0  0
    7.6051    2.7478    0.0000 C   0  0  0  0  0  0  0  0  0  0  0  0
    6.8906    3.1603    0.0000 C   0  0  0  0  0  0  0  0  0  0  0  0
    6.1762    2.7478    0.0000 N   0  0  0  0  0  0  0  0  0  0  0  0
    6.1762    1.9228    0.0000 C   0  0  0  0  0  0  0  0  0  0  0  0
    6.8436    1.4379    0.0000 C   0  0  0  0  0  0  0  0  0  0  0  0
    6.5887    0.6533    0.0000 C   0  0  0  0  0  0  0  0  0  0  0  0
    5.7637    0.6533    0.0000 C   0  0  0  0  0  0  0  0  0  0  0  0
    5.5088    1.4379    0.0000 C   0  0  0  0  0  0  0  0  0  0  0  0
    4.7241    1.6929    0.0000 C   0  0  0  0  0  0  0  0  0  0  0  0
    4.1407    1.1095    0.0000 C   0  0  0  0  0  0  0  0  0  0  0  0
    3.3438    1.3231    0.0000 C   0  0  0  0  0  0  0  0  0  0  0  0
    2.7605    0.7397    0.0000 C   0  0  0  0  0  0  0  0  0  0  0  0
    1.9636    0.9532    0.0000 C   0  0  0  0  0  0  0  0  0  0  0  0
    1.3802    0.3698    0.0000 C   0  0  0  0  0  0  0  0  0  0  0  0
    0.5833    0.5834    0.0000 C   0  0  0  0  0  0  0  0  0  0  0  0
    0.0000    0.0000    0.0000 O   0  0  0  0  0  0  0  0  0  0  0  0
    0.3698    1.3802    0.0000 O   0  0  0  0  0  0  0  0  0  0  0  0
  1  2  1  0  0  0  0
  2  3  1  0  0  0  0
  3  4  1  0  0  0  0
  4  5  1  0  0  0  0
  5  6  1  0  0  0  0
  6  7  1  0  0  0  0
  7  8  1  0  0  0  0
  8  9  1  0  0  0  0
  9 13  1  0  0  0  0
  9 10  1  0  0  0  0
 10 11  1  0  0  0  0
 11 12  1  0  0  0  0
 12 13  1  0  0  0  0
 13 14  1  0  0  0  0
 14 15  1  0  0  0  0
 15 16  1  0  0  0  0
 16 17  1  0  0  0  0
 17 18  1  0  0  0  0
 18 19  1  0  0  0  0
 19 20  1  0  0  0  0
 20 21  2  0  0  0  0
 20 22  1  0  0  0  0
M  END
>  <CdId>
17

>  <Mol Weight>
311.51

>  <Formula>
C19H37NO2

>  <Name>
13(?)-azaprostanoic acid

>  <Mol_ID>
217

>  <MolWeight>
311.51

>  <LogD>
3.06

$$$$
13(S)-HODE
  Mrv2113 02112212262D          

 21 20  0  0  0  0            999 V2000
    0.0000    0.0000    0.0000 C   0  0  0  0  0  0  0  0  0  0  0  0
    0.7145    0.4125    0.0000 C   0  0  0  0  0  0  0  0  0  0  0  0
    1.4290    0.0000    0.0000 C   0  0  0  0  0  0  0  0  0  0  0  0
    2.1435    0.4125    0.0000 C   0  0  0  0  0  0  0  0  0  0  0  0
    2.8579    0.0000    0.0000 C   0  0  0  0  0  0  0  0  0  0  0  0
    3.5724    0.4125    0.0000 C   0  0  0  0  0  0  0  0  0  0  0  0
    3.5724    1.2375    0.0000 O   0  0  0  0  0  0  0  0  0  0  0  0
    4.2869    0.0000    0.0000 C   0  0  0  0  0  0  0  0  0  0  0  0
    5.0014    0.4125    0.0000 C   0  0  0  0  0  0  0  0  0  0  0  0
    5.7159    0.0000    0.0000 C   0  0  0  0  0  0  0  0  0  0  0  0
    6.4304    0.4125    0.0000 C   0  0  0  0  0  0  0  0  0  0  0  0
    7.1449    0.0000    0.0000 C   0  0  0  0  0  0  0  0  0  0  0  0
    7.8594    0.4125    0.0000 C   0  0  0  0  0  0  0  0  0  0  0  0
    8.5738    0.0000    0.0000 C   0  0  0  0  0  0  0  0  0  0  0  0
    9.2883    0.4125    0.0000 C   0  0  0  0  0  0  0  0  0  0  0  0
   10.0028    0.0000    0.0000 C   0  0  0  0  0  0  0  0  0  0  0  0
   10.7173    0.4125    0.0000 C   0  0  0  0  0  0  0  0  0  0  0  0
   11.4318    0.0000    0.0000 C   0  0  0  0  0  0  0  0  0  0  0  0
   12.1463    0.4125    0.0000 C   0  0  0  0  0  0  0  0  0  0  0  0
   12.1463    1.2375    0.0000 O   0  0  0  0  0  0  0  0  0  0  0  0
   12.8607    0.0000    0.0000 O   0  0  0  0  0  0  0  0  0  0  0  0
  1  2  1  0  0  0  0
  2  3  1  0  0  0  0
  3  4  1  0  0  0  0
  4  5  1  0  0  0  0
  5  6  1  0  0  0  0
  6  7  1  0  0  0  0
  6  8  1  0  0  0  0
  8  9  2  0  0  0  0
  9 10  1  0  0  0  0
 10 11  2  0  0  0  0
 11 12  1  0  0  0  0
 12 13  1  0  0  0  0
 13 14  1  0  0  0  0
 14 15  1  0  0  0  0
 15 16  1  0  0  0  0
 16 17  1  0  0  0  0
 17 18  1  0  0  0  0
 18 19  1  0  0  0  0
 19 20  2  0  0  0  0
 19 21  1  0  0  0  0
M  END
>  <CdId>
18

>  <Mol Weight>
296.45

>  <Formula>
C18H32O3

>  <Name>
13(S)-HODE

>  <Mol_ID>
218

>  <MolWeight>
296.45

>  <LogD>
2.81

$$$$
13(S)-HOTE
  Mrv2113 02112212262D          

 21 20  0  0  0  0            999 V2000
    0.0000    0.0000    0.0000 C   0  0  0  0  0  0  0  0  0  0  0  0
    0.7145    0.4125    0.0000 C   0  0  0  0  0  0  0  0  0  0  0  0
    1.4290    0.0000    0.0000 C   0  0  0  0  0  0  0  0  0  0  0  0
    2.1435    0.4125    0.0000 C   0  0  0  0  0  0  0  0  0  0  0  0
    2.8579    0.0000    0.0000 C   0  0  0  0  0  0  0  0  0  0  0  0
    3.5724    0.4125    0.0000 C   0  0  0  0  0  0  0  0  0  0  0  0
    3.5724    1.2375    0.0000 O   0  0  0  0  0  0  0  0  0  0  0  0
    4.2869    0.0000    0.0000 C   0  0  0  0  0  0  0  0  0  0  0  0
    5.0014    0.4125    0.0000 C   0  0  0  0  0  0  0  0  0  0  0  0
    5.7159    0.0000    0.0000 C   0  0  0  0  0  0  0  0  0  0  0  0
    6.4304    0.4125    0.0000 C   0  0  0  0  0  0  0  0  0  0  0  0
    7.1449    0.0000    0.0000 C   0  0  0  0  0  0  0  0  0  0  0  0
    7.8594    0.4125    0.0000 C   0  0  0  0  0  0  0  0  0  0  0  0
    8.5738    0.0000    0.0000 C   0  0  0  0  0  0  0  0  0  0  0  0
    9.2883    0.4125    0.0000 C   0  0  0  0  0  0  0  0  0  0  0  0
   10.0028    0.0000    0.0000 C   0  0  0  0  0  0  0  0  0  0  0  0
   10.7173    0.4125    0.0000 C   0  0  0  0  0  0  0  0  0  0  0  0
   11.4318    0.0000    0.0000 C   0  0  0  0  0  0  0  0  0  0  0  0
   12.1463    0.4125    0.0000 C   0  0  0  0  0  0  0  0  0  0  0  0
   12.1463    1.2375    0.0000 O   0  0  0  0  0  0  0  0  0  0  0  0
   12.8607    0.0000    0.0000 O   0  0  0  0  0  0  0  0  0  0  0  0
  1  2  1  0  0  0  0
  2  3  1  0  0  0  0
  3  4  1  0  0  0  0
  4  5  1  0  0  0  0
  5  6  1  0  0  0  0
  6  7  1  0  0  0  0
  6  8  1  0  0  0  0
  8  9  2  0  0  0  0
  9 10  1  0  0  0  0
 10 11  2  0  0  0  0
 11 12  1  0  0  0  0
 12 13  1  0  0  0  0
 13 14  2  0  0  0  0
 14 15  1  0  0  0  0
 15 16  1  0  0  0  0
 16 17  1  0  0  0  0
 17 18  1  0  0  0  0
 18 19  1  0  0  0  0
 19 20  2  0  0  0  0
 19 21  1  0  0  0  0
M  END
>  <CdId>
19

>  <Mol Weight>
294.44

>  <Formula>
C18H30O3

>  <Name>
13(S)-HOTE

>  <Mol_ID>
219

>  <MolWeight>
294.43

>  <LogD>
2.39

$$$$
13(S)-HPODE
  Mrv2113 02112212262D          

 22 21  0  0  0  0            999 V2000
    8.5738    4.1251    0.0000 C   0  0  0  0  0  0  0  0  0  0  0  0
    9.2883    3.7126    0.0000 C   0  0  0  0  0  0  0  0  0  0  0  0
    9.2883    2.8876    0.0000 C   0  0  0  0  0  0  0  0  0  0  0  0
   10.0028    2.4751    0.0000 C   0  0  0  0  0  0  0  0  0  0  0  0
   10.0028    1.6500    0.0000 C   0  0  0  0  0  0  0  0  0  0  0  0
    9.2883    1.2375    0.0000 C   0  0  0  0  0  0  0  0  0  0  0  0
    9.2883    0.4125    0.0000 O   0  0  0  0  0  0  0  0  0  0  0  0
   10.0028    0.0000    0.0000 O   0  0  0  0  0  0  0  0  0  0  0  0
    8.5738    1.6500    0.0000 C   0  0  0  0  0  0  0  0  0  0  0  0
    7.8594    1.2375    0.0000 C   0  0  0  0  0  0  0  0  0  0  0  0
    7.1449    1.6500    0.0000 C   0  0  0  0  0  0  0  0  0  0  0  0
    6.4304    1.2375    0.0000 C   0  0  0  0  0  0  0  0  0  0  0  0
    5.7159    1.6500    0.0000 C   0  0  0  0  0  0  0  0  0  0  0  0
    5.0014    1.2375    0.0000 C   0  0  0  0  0  0  0  0  0  0  0  0
    4.2869    1.6500    0.0000 C   0  0  0  0  0  0  0  0  0  0  0  0
    3.5724    1.2375    0.0000 C   0  0  0  0  0  0  0  0  0  0  0  0
    2.8579    1.6500    0.0000 C   0  0  0  0  0  0  0  0  0  0  0  0
    2.1435    1.2375    0.0000 C   0  0  0  0  0  0  0  0  0  0  0  0
    1.4290    1.6500    0.0000 C   0  0  0  0  0  0  0  0  0  0  0  0
    0.7145    1.2375    0.0000 C   0  0  0  0  0  0  0  0  0  0  0  0
    0.7145    0.4125    0.0000 O   0  0  0  0  0  0  0  0  0  0  0  0
    0.0000    1.6500    0.0000 O   0  0  0  0  0  0  0  0  0  0  0  0
  1  2  1  0  0  0  0
  2  3  1  0  0  0  0
  3  4  1  0  0  0  0
  4  5  1  0  0  0  0
  5  6  1  0  0  0  0
  6  7  1  0  0  0  0
  7  8  1  0  0  0  0
  6  9  1  0  0  0  0
  9 10  2  0  0  0  0
 10 11  1  0  0  0  0
 11 12  2  0  0  0  0
 12 13  1  0  0  0  0
 13 14  1  0  0  0  0
 14 15  1  0  0  0  0
 15 16  1  0  0  0  0
 16 17  1  0  0  0  0
 17 18  1  0  0  0  0
 18 19  1  0  0  0  0
 19 20  1  0  0  0  0
 20 21  2  0  0  0  0
 20 22  1  0  0  0  0
M  END
>  <CdId>
20

>  <Mol Weight>
312.45

>  <Formula>
C18H32O4

>  <Name>
13(S)-HPODE

>  <Mol_ID>
220

>  <MolWeight>
312.45

>  <LogD>
3.26

$$$$
13,14-dihydro-15-ketoprostaglandin F2a
  Mrv2113 02112212262D          

 25 25  0  0  0  0            999 V2000
    6.8870    2.8810    0.0000 C   0  0  0  0  0  0  0  0  0  0  0  0
    6.4745    2.1665    0.0000 C   0  0  0  0  0  0  0  0  0  0  0  0
    5.6495    2.1665    0.0000 C   0  0  0  0  0  0  0  0  0  0  0  0
    5.2370    1.4521    0.0000 C   0  0  0  0  0  0  0  0  0  0  0  0
    4.4120    1.4521    0.0000 C   0  0  0  0  0  0  0  0  0  0  0  0
    3.9995    0.7376    0.0000 C   0  0  0  0  0  0  0  0  0  0  0  0
    4.4120    0.0231    0.0000 O   0  0  0  0  0  0  0  0  0  0  0  0
    3.1745    0.7376    0.0000 C   0  0  0  0  0  0  0  0  0  0  0  0
    2.7620    1.4521    0.0000 C   0  0  0  0  0  0  0  0  0  0  0  0
    1.9370    1.4521    0.0000 C   0  0  0  0  0  0  0  0  0  0  0  0
    1.4521    0.7846    0.0000 C   0  0  0  0  0  0  0  0  0  0  0  0
    1.7070    0.0000    0.0000 O   0  0  0  0  0  0  0  0  0  0  0  0
    0.6674    1.0396    0.0000 C   0  0  0  0  0  0  0  0  0  0  0  0
    0.6674    1.8646    0.0000 C   0  0  0  0  0  0  0  0  0  0  0  0
    0.0000    2.3495    0.0000 O   0  0  0  0  0  0  0  0  0  0  0  0
    1.4521    2.1195    0.0000 C   0  0  0  0  0  0  0  0  0  0  0  0
    1.7070    2.9041    0.0000 C   0  0  0  0  0  0  0  0  0  0  0  0
    1.1237    3.4875    0.0000 C   0  0  0  0  0  0  0  0  0  0  0  0
    1.3371    4.2844    0.0000 C   0  0  0  0  0  0  0  0  0  0  0  0
    0.7538    4.8677    0.0000 C   0  0  0  0  0  0  0  0  0  0  0  0
    0.9673    5.6646    0.0000 C   0  0  0  0  0  0  0  0  0  0  0  0
    0.3840    6.2480    0.0000 C   0  0  0  0  0  0  0  0  0  0  0  0
    0.5975    7.0449    0.0000 C   0  0  0  0  0  0  0  0  0  0  0  0
    0.0141    7.6282    0.0000 O   0  0  0  0  0  0  0  0  0  0  0  0
    1.3944    7.2584    0.0000 O   0  0  0  0  0  0  0  0  0  0  0  0
  1  2  1  0  0  0  0
  2  3  1  0  0  0  0
  3  4  1  0  0  0  0
  4  5  1  0  0  0  0
  5  6  1  0  0  0  0
  6  7  2  0  0  0  0
  6  8  1  0  0  0  0
  8  9  1  0  0  0  0
  9 10  1  0  0  0  0
 10 16  1  0  0  0  0
 10 11  1  0  0  0  0
 11 12  1  0  0  0  0
 11 13  1  0  0  0  0
 13 14  1  0  0  0  0
 14 15  1  0  0  0  0
 14 16  1  0  0  0  0
 16 17  1  0  0  0  0
 17 18  1  0  0  0  0
 18 19  2  0  0  0  0
 19 20  1  0  0  0  0
 20 21  1  0  0  0  0
 21 22  1  0  0  0  0
 22 23  1  0  0  0  0
 23 24  2  0  0  0  0
 23 25  1  0  0  0  0
M  END
>  <CdId>
21

>  <Mol Weight>
354.49

>  <Formula>
C20H34O5

>  <Name>
13,14-dihydro-15-ketoprostaglandin F2a

>  <Mol_ID>
221

>  <MolWeight>
354.49

>  <LogD>
0.07

$$$$
13,14-dihydroprostaglandin E1
  Mrv2113 02112212262D          

 25 25  0  0  0  0            999 V2000
    6.8870    2.8810    0.0000 C   0  0  0  0  0  0  0  0  0  0  0  0
    6.4745    2.1665    0.0000 C   0  0  0  0  0  0  0  0  0  0  0  0
    5.6495    2.1665    0.0000 C   0  0  0  0  0  0  0  0  0  0  0  0
    5.2370    1.4521    0.0000 C   0  0  0  0  0  0  0  0  0  0  0  0
    4.4120    1.4521    0.0000 C   0  0  0  0  0  0  0  0  0  0  0  0
    3.9995    0.7376    0.0000 C   0  0  0  0  0  0  0  0  0  0  0  0
    4.4120    0.0231    0.0000 O   0  0  0  0  0  0  0  0  0  0  0  0
    3.1745    0.7376    0.0000 C   0  0  0  0  0  0  0  0  0  0  0  0
    2.7620    1.4521    0.0000 C   0  0  0  0  0  0  0  0  0  0  0  0
    1.9370    1.4521    0.0000 C   0  0  0  0  0  0  0  0  0  0  0  0
    1.4521    0.7846    0.0000 C   0  0  0  0  0  0  0  0  0  0  0  0
    1.7070    0.0000    0.0000 O   0  0  0  0  0  0  0  0  0  0  0  0
    0.6674    1.0396    0.0000 C   0  0  0  0  0  0  0  0  0  0  0  0
    0.6674    1.8646    0.0000 C   0  0  0  0  0  0  0  0  0  0  0  0
    0.0000    2.3495    0.0000 O   0  0  0  0  0  0  0  0  0  0  0  0
    1.4521    2.1195    0.0000 C   0  0  0  0  0  0  0  0  0  0  0  0
    1.7070    2.9041    0.0000 C   0  0  0  0  0  0  0  0  0  0  0  0
    1.1237    3.4875    0.0000 C   0  0  0  0  0  0  0  0  0  0  0  0
    1.3371    4.2844    0.0000 C   0  0  0  0  0  0  0  0  0  0  0  0
    0.7538    4.8677    0.0000 C   0  0  0  0  0  0  0  0  0  0  0  0
    0.9673    5.6646    0.0000 C   0  0  0  0  0  0  0  0  0  0  0  0
    0.3840    6.2480    0.0000 C   0  0  0  0  0  0  0  0  0  0  0  0
    0.5975    7.0449    0.0000 C   0  0  0  0  0  0  0  0  0  0  0  0
    0.0141    7.6282    0.0000 O   0  0  0  0  0  0  0  0  0  0  0  0
    1.3944    7.2584    0.0000 O   0  0  0  0  0  0  0  0  0  0  0  0
  1  2  1  0  0  0  0
  2  3  1  0  0  0  0
  3  4  1  0  0  0  0
  4  5  1  0  0  0  0
  5  6  1  0  0  0  0
  6  7  1  0  0  0  0
  6  8  1  0  0  0  0
  8  9  1  0  0  0  0
  9 10  1  0  0  0  0
 10 16  1  0  0  0  0
 10 11  1  0  0  0  0
 11 12  1  0  0  0  0
 11 13  1  0  0  0  0
 13 14  1  0  0  0  0
 14 15  2  0  0  0  0
 14 16  1  0  0  0  0
 16 17  1  0  0  0  0
 17 18  1  0  0  0  0
 18 19  1  0  0  0  0
 19 20  1  0  0  0  0
 20 21  1  0  0  0  0
 21 22  1  0  0  0  0
 22 23  1  0  0  0  0
 23 24  2  0  0  0  0
 23 25  1  0  0  0  0
M  END
>  <CdId>
22

>  <Mol Weight>
356.50

>  <Formula>
C20H36O5

>  <Name>
13,14-dihydroprostaglandin E1

>  <Mol_ID>
222

>  <MolWeight>
356.50

>  <LogD>
0.83

$$$$
13-ketooctadecadienoic acid
  Mrv2113 02112212262D          

 20 19  0  0  0  0            999 V2000
    0.0000    0.4125    0.0000 C   0  0  0  0  0  0  0  0  0  0  0  0
    0.7145    0.0000    0.0000 C   0  0  0  0  0  0  0  0  0  0  0  0
    1.4290    0.4125    0.0000 C   0  0  0  0  0  0  0  0  0  0  0  0
    2.1435    0.0000    0.0000 C   0  0  0  0  0  0  0  0  0  0  0  0
    2.8579    0.4125    0.0000 C   0  0  0  0  0  0  0  0  0  0  0  0
    2.8579    1.2375    0.0000 O   0  0  0  0  0  0  0  0  0  0  0  0
    3.5724    0.0000    0.0000 C   0  0  0  0  0  0  0  0  0  0  0  0
    4.2869    0.4125    0.0000 C   0  0  0  0  0  0  0  0  0  0  0  0
    5.0014    0.0000    0.0000 C   0  0  0  0  0  0  0  0  0  0  0  0
    5.7159    0.4125    0.0000 C   0  0  0  0  0  0  0  0  0  0  0  0
    6.4304    0.0000    0.0000 C   0  0  0  0  0  0  0  0  0  0  0  0
    7.1449    0.4125    0.0000 C   0  0  0  0  0  0  0  0  0  0  0  0
    7.8594    0.0000    0.0000 C   0  0  0  0  0  0  0  0  0  0  0  0
    8.5738    0.4125    0.0000 C   0  0  0  0  0  0  0  0  0  0  0  0
    9.2883    0.0000    0.0000 C   0  0  0  0  0  0  0  0  0  0  0  0
   10.0028    0.4125    0.0000 C   0  0  0  0  0  0  0  0  0  0  0  0
   10.7173    0.0000    0.0000 C   0  0  0  0  0  0  0  0  0  0  0  0
   11.4318    0.4125    0.0000 C   0  0  0  0  0  0  0  0  0  0  0  0
   11.4318    1.2375    0.0000 O   0  0  0  0  0  0  0  0  0  0  0  0
   12.1463    0.0000    0.0000 O   0  0  0  0  0  0  0  0  0  0  0  0
  1  2  1  0  0  0  0
  2  3  1  0  0  0  0
  3  4  1  0  0  0  0
  4  5  1  0  0  0  0
  5  6  2  0  0  0  0
  5  7  1  0  0  0  0
  7  8  2  0  0  0  0
  8  9  1  0  0  0  0
  9 10  2  0  0  0  0
 10 11  1  0  0  0  0
 11 12  1  0  0  0  0
 12 13  1  0  0  0  0
 13 14  1  0  0  0  0
 14 15  1  0  0  0  0
 15 16  1  0  0  0  0
 16 17  1  0  0  0  0
 17 18  1  0  0  0  0
 18 19  2  0  0  0  0
 18 20  1  0  0  0  0
M  END
>  <CdId>
23

>  <Mol Weight>
280.41

>  <Formula>
C17H28O3

>  <Name>
13-ketooctadecadienoic acid

>  <Mol_ID>
223

>  <MolWeight>
280.41

>  <LogD>
2.78

$$$$
14,15-dehydroleukotriene B4
  Mrv2113 02112212262D          

 24 23  0  0  0  0            999 V2000
    0.0000    2.1434    0.0000 C   0  0  0  0  0  0  0  0  0  0  0  0
    0.8250    2.1434    0.0000 C   0  0  0  0  0  0  0  0  0  0  0  0
    1.2375    1.4290    0.0000 C   0  0  0  0  0  0  0  0  0  0  0  0
    2.0625    1.4290    0.0000 C   0  0  0  0  0  0  0  0  0  0  0  0
    2.4750    0.7144    0.0000 C   0  0  0  0  0  0  0  0  0  0  0  0
    3.3000    0.7144    0.0000 C   0  0  0  0  0  0  0  0  0  0  0  0
    4.1250    0.7144    0.0000 C   0  0  0  0  0  0  0  0  0  0  0  0
    4.9500    0.7144    0.0000 C   0  0  0  0  0  0  0  0  0  0  0  0
    5.3625    1.4290    0.0000 C   0  0  0  0  0  0  0  0  0  0  0  0
    4.9500    2.1434    0.0000 O   0  0  0  0  0  0  0  0  0  0  0  0
    6.1875    1.4290    0.0000 C   0  0  0  0  0  0  0  0  0  0  0  0
    6.6000    0.7144    0.0000 C   0  0  0  0  0  0  0  0  0  0  0  0
    7.4250    0.7144    0.0000 C   0  0  0  0  0  0  0  0  0  0  0  0
    7.8375    0.0000    0.0000 C   0  0  0  0  0  0  0  0  0  0  0  0
    8.6625    0.0000    0.0000 C   0  0  0  0  0  0  0  0  0  0  0  0
    9.0750    0.7144    0.0000 C   0  0  0  0  0  0  0  0  0  0  0  0
    9.9000    0.7144    0.0000 C   0  0  0  0  0  0  0  0  0  0  0  0
   10.3125    0.0000    0.0000 O   0  0  0  0  0  0  0  0  0  0  0  0
   10.3125    1.4290    0.0000 C   0  0  0  0  0  0  0  0  0  0  0  0
   11.1375    1.4290    0.0000 C   0  0  0  0  0  0  0  0  0  0  0  0
   11.5500    0.7144    0.0000 C   0  0  0  0  0  0  0  0  0  0  0  0
   12.3750    0.7144    0.0000 C   0  0  0  0  0  0  0  0  0  0  0  0
   12.7875    1.4290    0.0000 O   0  0  0  0  0  0  0  0  0  0  0  0
   12.7875    0.0000    0.0000 O   0  0  0  0  0  0  0  0  0  0  0  0
  1  2  1  0  0  0  0
  2  3  1  0  0  0  0
  3  4  1  0  0  0  0
  4  5  1  0  0  0  0
  5  6  1  0  0  0  0
  6  7  3  0  0  0  0
  7  8  1  0  0  0  0
  8  9  1  0  0  0  0
  9 10  1  0  0  0  0
  9 11  1  0  0  0  0
 11 12  2  0  0  0  0
 12 13  1  0  0  0  0
 13 14  2  0  0  0  0
 14 15  1  0  0  0  0
 15 16  2  0  0  0  0
 16 17  1  0  0  0  0
 17 18  1  0  0  0  0
 17 19  1  0  0  0  0
 19 20  1  0  0  0  0
 20 21  1  0  0  0  0
 21 22  1  0  0  0  0
 22 23  2  0  0  0  0
 22 24  1  0  0  0  0
M  END
>  <CdId>
24

>  <Mol Weight>
334.46

>  <Formula>
C20H30O4

>  <Name>
14,15-dehydroleukotriene B4

>  <Mol_ID>
224

>  <MolWeight>
334.45

>  <LogD>
1.39

$$$$
14,15-epoxyeicosatrienoic acid
  Mrv2113 02112212262D          

 23 23  0  0  0  0            999 V2000
   14.4003    1.1270    0.0000 C   0  0  0  0  0  0  0  0  0  0  0  0
   13.6858    0.7145    0.0000 C   0  0  0  0  0  0  0  0  0  0  0  0
   12.9713    1.1270    0.0000 C   0  0  0  0  0  0  0  0  0  0  0  0
   12.2568    0.7145    0.0000 C   0  0  0  0  0  0  0  0  0  0  0  0
   11.5423    1.1270    0.0000 C   0  0  0  0  0  0  0  0  0  0  0  0
   10.8278    0.7145    0.0000 C   0  0  0  0  0  0  0  0  0  0  0  0
   10.4153    0.0000    0.0000 O   0  0  0  0  0  0  0  0  0  0  0  0
   10.0028    0.7145    0.0000 C   0  0  0  0  0  0  0  0  0  0  0  0
    9.2883    1.1270    0.0000 C   0  0  0  0  0  0  0  0  0  0  0  0
    8.5738    0.7145    0.0000 C   0  0  0  0  0  0  0  0  0  0  0  0
    7.8594    1.1270    0.0000 C   0  0  0  0  0  0  0  0  0  0  0  0
    7.1449    0.7145    0.0000 C   0  0  0  0  0  0  0  0  0  0  0  0
    6.4304    1.1270    0.0000 C   0  0  0  0  0  0  0  0  0  0  0  0
    5.7159    0.7145    0.0000 C   0  0  0  0  0  0  0  0  0  0  0  0
    5.0014    1.1270    0.0000 C   0  0  0  0  0  0  0  0  0  0  0  0
    4.2869    0.7145    0.0000 C   0  0  0  0  0  0  0  0  0  0  0  0
    3.5724    1.1270    0.0000 C   0  0  0  0  0  0  0  0  0  0  0  0
    2.8579    0.7145    0.0000 C   0  0  0  0  0  0  0  0  0  0  0  0
    2.1435    1.1270    0.0000 C   0  0  0  0  0  0  0  0  0  0  0  0
    1.4290    0.7145    0.0000 C   0  0  0  0  0  0  0  0  0  0  0  0
    0.7145    1.1270    0.0000 C   0  0  0  0  0  0  0  0  0  0  0  0
    0.7145    1.9520    0.0000 O   0  0  0  0  0  0  0  0  0  0  0  0
    0.0000    0.7145    0.0000 O   0  0  0  0  0  0  0  0  0  0  0  0
  1  2  1  0  0  0  0
  2  3  1  0  0  0  0
  3  4  1  0  0  0  0
  4  5  1  0  0  0  0
  5  6  1  0  0  0  0
  6  8  1  0  0  0  0
  6  7  1  0  0  0  0
  7  8  1  0  0  0  0
  8  9  1  0  0  0  0
  9 10  1  0  0  0  0
 10 11  2  0  0  0  0
 11 12  1  0  0  0  0
 12 13  1  0  0  0  0
 13 14  2  0  0  0  0
 14 15  1  0  0  0  0
 15 16  1  0  0  0  0
 16 17  2  0  0  0  0
 17 18  1  0  0  0  0
 18 19  1  0  0  0  0
 19 20  1  0  0  0  0
 20 21  1  0  0  0  0
 21 22  2  0  0  0  0
 21 23  1  0  0  0  0
M  END
>  <CdId>
25

>  <Mol Weight>
320.47

>  <Formula>
C20H32O3

>  <Name>
14,15-epoxyeicosatrienoic acid

>  <Mol_ID>
225

>  <MolWeight>
320.47

>  <LogD>
3.11

$$$$
14-Methyleudistomin C
  Mrv2113 02112212262D          

 22 24  0  0  0  0            999 V2000
    5.5969    0.0000    0.0000 C   0  0  0  0  0  0  0  0  0  0  0  0
    5.5969    0.8250    0.0000 S   0  0  0  0  0  0  0  0  0  0  0  0
    4.8824    1.2375    0.0000 C   0  0  0  0  0  0  0  0  0  0  0  0
    4.8824    2.0625    0.0000 C   0  0  0  0  0  0  0  0  0  0  0  0
    5.5969    2.4750    0.0000 N   0  0  0  0  0  0  0  0  0  0  0  0
    6.3113    2.0625    0.0000 C   0  0  0  0  0  0  0  0  0  0  0  0
    5.5969    3.3000    0.0000 C   0  0  0  0  0  0  0  0  0  0  0  0
    4.1679    2.4750    0.0000 C   0  0  0  0  0  0  0  0  0  0  0  0
    4.1679    3.3000    0.0000 N   0  0  0  0  0  0  0  0  0  0  0  0
    3.4535    3.7125    0.0000 C   0  0  0  0  0  0  0  0  0  0  0  0
    2.7390    3.3000    0.0000 C   0  0  0  0  0  0  0  0  0  0  0  0
    2.7390    2.4750    0.0000 C   0  0  0  0  0  0  0  0  0  0  0  0
    3.4535    2.0625    0.0000 C   0  0  0  0  0  0  0  0  0  0  0  0
    3.2819    1.2555    0.0000 N   0  0  0  0  0  0  0  0  0  0  0  0
    2.4614    1.1693    0.0000 C   0  0  0  0  0  0  0  0  0  0  0  0
    1.9765    0.5018    0.0000 C   0  0  0  0  0  0  0  0  0  0  0  0
    1.1561    0.5881    0.0000 C   0  0  0  0  0  0  0  0  0  0  0  0
    0.8205    1.3417    0.0000 C   0  0  0  0  0  0  0  0  0  0  0  0
    0.0000    1.4280    0.0000 O   0  0  0  0  0  0  0  0  0  0  0  0
    1.3054    2.0092    0.0000 C   0  0  0  0  0  0  0  0  0  0  0  0
    0.9698    2.7629    0.0000 Br  0  0  0  0  0  0  0  0  0  0  0  0
    2.1259    1.9230    0.0000 C   0  0  0  0  0  0  0  0  0  0  0  0
  1  2  1  0  0  0  0
  2  3  1  0  0  0  0
  3  4  1  0  0  0  0
  4  5  1  0  0  0  0
  5  6  1  0  0  0  0
  5  7  1  0  0  0  0
  4  8  1  0  0  0  0
  8 13  2  0  0  0  0
  8  9  1  0  0  0  0
  9 10  2  0  0  0  0
 10 11  1  0  0  0  0
 11 12  2  0  0  0  0
 12 22  1  0  0  0  0
 12 13  1  0  0  0  0
 13 14  1  0  0  0  0
 14 15  1  0  0  0  0
 15 22  2  0  0  0  0
 15 16  1  0  0  0  0
 16 17  2  0  0  0  0
 17 18  1  0  0  0  0
 18 19  1  0  0  0  0
 18 20  2  0  0  0  0
 20 21  1  0  0  0  0
 20 22  1  0  0  0  0
M  END
>  <CdId>
26

>  <Mol Weight>
380.30

>  <Formula>
C16H18BrN3OS

>  <Name>
14-Methyleudistomin C

>  <Mol_ID>
226

>  <MolWeight>
380.30

>  <LogD>
2.22

$$$$
1400W
  Mrv2113 02112212262D          

 13 13  0  0  0  0            999 V2000
    0.0000    1.2375    0.0000 C   0  0  0  0  0  0  0  0  0  0  0  0
    0.7144    0.8250    0.0000 C   0  0  0  0  0  0  0  0  0  0  0  0
    0.7144    0.0000    0.0000 N   0  0  0  0  0  0  0  0  0  0  0  0
    1.4290    1.2375    0.0000 N   0  0  0  0  0  0  0  0  0  0  0  0
    2.1434    0.8250    0.0000 C   0  0  0  0  0  0  0  0  0  0  0  0
    2.8579    1.2375    0.0000 C   0  0  0  0  0  0  0  0  0  0  0  0
    2.8579    2.0625    0.0000 C   0  0  0  0  0  0  0  0  0  0  0  0
    3.5724    2.4750    0.0000 C   0  0  0  0  0  0  0  0  0  0  0  0
    4.2868    2.0625    0.0000 C   0  0  0  0  0  0  0  0  0  0  0  0
    4.2868    1.2375    0.0000 C   0  0  0  0  0  0  0  0  0  0  0  0
    5.0013    0.8250    0.0000 C   0  0  0  0  0  0  0  0  0  0  0  0
    5.7158    1.2375    0.0000 N   0  0  0  0  0  0  0  0  0  0  0  0
    3.5724    0.8250    0.0000 C   0  0  0  0  0  0  0  0  0  0  0  0
  1  2  1  0  0  0  0
  2  3  2  0  0  0  0
  2  4  1  0  0  0  0
  4  5  1  0  0  0  0
  5  6  1  0  0  0  0
  6 13  2  0  0  0  0
  6  7  1  0  0  0  0
  7  8  2  0  0  0  0
  8  9  1  0  0  0  0
  9 10  2  0  0  0  0
 10 11  1  0  0  0  0
 11 12  1  0  0  0  0
 10 13  1  0  0  0  0
M  END
>  <CdId>
27

>  <Mol Weight>
177.25

>  <Formula>
C10H15N3

>  <Name>
1400W

>  <Mol_ID>
227

>  <MolWeight>
177.25

>  <LogD>
-4.09

$$$$
15(S)-HEDE
  Mrv2113 02112212262D          

 23 22  0  0  0  0            999 V2000
    0.0000    0.0000    0.0000 C   0  0  0  0  0  0  0  0  0  0  0  0
    0.7145    0.4125    0.0000 C   0  0  0  0  0  0  0  0  0  0  0  0
    1.4290    0.0000    0.0000 C   0  0  0  0  0  0  0  0  0  0  0  0
    2.1435    0.4125    0.0000 C   0  0  0  0  0  0  0  0  0  0  0  0
    2.8579    0.0000    0.0000 C   0  0  0  0  0  0  0  0  0  0  0  0
    3.5724    0.4125    0.0000 C   0  0  0  0  0  0  0  0  0  0  0  0
    3.5724    1.2375    0.0000 O   0  0  0  0  0  0  0  0  0  0  0  0
    4.2869    0.0000    0.0000 C   0  0  0  0  0  0  0  0  0  0  0  0
    5.0014    0.4125    0.0000 C   0  0  0  0  0  0  0  0  0  0  0  0
    5.7159    0.0000    0.0000 C   0  0  0  0  0  0  0  0  0  0  0  0
    6.4304    0.4125    0.0000 C   0  0  0  0  0  0  0  0  0  0  0  0
    7.1449    0.0000    0.0000 C   0  0  0  0  0  0  0  0  0  0  0  0
    7.8594    0.4125    0.0000 C   0  0  0  0  0  0  0  0  0  0  0  0
    8.5738    0.0000    0.0000 C   0  0  0  0  0  0  0  0  0  0  0  0
    9.2883    0.4125    0.0000 C   0  0  0  0  0  0  0  0  0  0  0  0
   10.0028    0.0000    0.0000 C   0  0  0  0  0  0  0  0  0  0  0  0
   10.7173    0.4125    0.0000 C   0  0  0  0  0  0  0  0  0  0  0  0
   11.4318    0.0000    0.0000 C   0  0  0  0  0  0  0  0  0  0  0  0
   12.1463    0.4125    0.0000 C   0  0  0  0  0  0  0  0  0  0  0  0
   12.8607    0.0000    0.0000 C   0  0  0  0  0  0  0  0  0  0  0  0
   13.5753    0.4125    0.0000 C   0  0  0  0  0  0  0  0  0  0  0  0
   13.5753    1.2375    0.0000 O   0  0  0  0  0  0  0  0  0  0  0  0
   14.2897    0.0000    0.0000 O   0  0  0  0  0  0  0  0  0  0  0  0
  1  2  1  0  0  0  0
  2  3  1  0  0  0  0
  3  4  1  0  0  0  0
  4  5  1  0  0  0  0
  5  6  1  0  0  0  0
  6  7  1  0  0  0  0
  6  8  1  0  0  0  0
  8  9  2  0  0  0  0
  9 10  1  0  0  0  0
 10 11  2  0  0  0  0
 11 12  1  0  0  0  0
 12 13  1  0  0  0  0
 13 14  1  0  0  0  0
 14 15  1  0  0  0  0
 15 16  1  0  0  0  0
 16 17  1  0  0  0  0
 17 18  1  0  0  0  0
 18 19  1  0  0  0  0
 19 20  1  0  0  0  0
 20 21  1  0  0  0  0
 21 22  2  0  0  0  0
 21 23  1  0  0  0  0
M  END
>  <CdId>
28

>  <Mol Weight>
324.50

>  <Formula>
C20H36O3

>  <Name>
15(S)-HEDE

>  <Mol_ID>
228

>  <MolWeight>
324.50

>  <LogD>
3.67

$$$$
15(S)-HEPE
  Mrv2113 02112212262D          

 23 22  0  0  0  0            999 V2000
    0.0000    0.0000    0.0000 C   0  0  0  0  0  0  0  0  0  0  0  0
    0.7145    0.4125    0.0000 C   0  0  0  0  0  0  0  0  0  0  0  0
    1.4290    0.0000    0.0000 C   0  0  0  0  0  0  0  0  0  0  0  0
    2.1435    0.4125    0.0000 C   0  0  0  0  0  0  0  0  0  0  0  0
    2.8579    0.0000    0.0000 C   0  0  0  0  0  0  0  0  0  0  0  0
    3.5724    0.4125    0.0000 C   0  0  0  0  0  0  0  0  0  0  0  0
    3.5724    1.2375    0.0000 O   0  0  0  0  0  0  0  0  0  0  0  0
    4.2869    0.0000    0.0000 C   0  0  0  0  0  0  0  0  0  0  0  0
    5.0014    0.4125    0.0000 C   0  0  0  0  0  0  0  0  0  0  0  0
    5.7159    0.0000    0.0000 C   0  0  0  0  0  0  0  0  0  0  0  0
    6.4304    0.4125    0.0000 C   0  0  0  0  0  0  0  0  0  0  0  0
    7.1449    0.0000    0.0000 C   0  0  0  0  0  0  0  0  0  0  0  0
    7.8594    0.4125    0.0000 C   0  0  0  0  0  0  0  0  0  0  0  0
    8.5738    0.0000    0.0000 C   0  0  0  0  0  0  0  0  0  0  0  0
    9.2883    0.4125    0.0000 C   0  0  0  0  0  0  0  0  0  0  0  0
   10.0028    0.0000    0.0000 C   0  0  0  0  0  0  0  0  0  0  0  0
   10.7173    0.4125    0.0000 C   0  0  0  0  0  0  0  0  0  0  0  0
   11.4318    0.0000    0.0000 C   0  0  0  0  0  0  0  0  0  0  0  0
   12.1463    0.4125    0.0000 C   0  0  0  0  0  0  0  0  0  0  0  0
   12.8607    0.0000    0.0000 C   0  0  0  0  0  0  0  0  0  0  0  0
   13.5753    0.4125    0.0000 C   0  0  0  0  0  0  0  0  0  0  0  0
   13.5753    1.2375    0.0000 O   0  0  0  0  0  0  0  0  0  0  0  0
   14.2897    0.0000    0.0000 O   0  0  0  0  0  0  0  0  0  0  0  0
  1  2  1  0  0  0  0
  2  3  1  0  0  0  0
  3  4  2  0  0  0  0
  4  5  1  0  0  0  0
  5  6  1  0  0  0  0
  6  7  1  0  0  0  0
  6  8  1  0  0  0  0
  8  9  2  0  0  0  0
  9 10  1  0  0  0  0
 10 11  2  0  0  0  0
 11 12  1  0  0  0  0
 12 13  1  0  0  0  0
 13 14  2  0  0  0  0
 14 15  1  0  0  0  0
 15 16  1  0  0  0  0
 16 17  2  0  0  0  0
 17 18  1  0  0  0  0
 18 19  1  0  0  0  0
 19 20  1  0  0  0  0
 20 21  1  0  0  0  0
 21 22  2  0  0  0  0
 21 23  1  0  0  0  0
M  END
>  <CdId>
29

>  <Mol Weight>
318.46

>  <Formula>
C20H30O3

>  <Name>
15(S)-HEPE

>  <Mol_ID>
229

>  <MolWeight>
318.46

>  <LogD>
2.46

$$$$
15(S)-HETE
  Mrv2113 02112212262D          

 23 22  0  0  0  0            999 V2000
    0.0000    0.0000    0.0000 C   0  0  0  0  0  0  0  0  0  0  0  0
    0.7145    0.4125    0.0000 C   0  0  0  0  0  0  0  0  0  0  0  0
    1.4290    0.0000    0.0000 C   0  0  0  0  0  0  0  0  0  0  0  0
    2.1435    0.4125    0.0000 C   0  0  0  0  0  0  0  0  0  0  0  0
    2.8579    0.0000    0.0000 C   0  0  0  0  0  0  0  0  0  0  0  0
    3.5724    0.4125    0.0000 C   0  0  0  0  0  0  0  0  0  0  0  0
    3.5724    1.2375    0.0000 O   0  0  0  0  0  0  0  0  0  0  0  0
    4.2869    0.0000    0.0000 C   0  0  0  0  0  0  0  0  0  0  0  0
    5.0014    0.4125    0.0000 C   0  0  0  0  0  0  0  0  0  0  0  0
    5.7159    0.0000    0.0000 C   0  0  0  0  0  0  0  0  0  0  0  0
    6.4304    0.4125    0.0000 C   0  0  0  0  0  0  0  0  0  0  0  0
    7.1449    0.0000    0.0000 C   0  0  0  0  0  0  0  0  0  0  0  0
    7.8594    0.4125    0.0000 C   0  0  0  0  0  0  0  0  0  0  0  0
    8.5738    0.0000    0.0000 C   0  0  0  0  0  0  0  0  0  0  0  0
    9.2883    0.4125    0.0000 C   0  0  0  0  0  0  0  0  0  0  0  0
   10.0028    0.0000    0.0000 C   0  0  0  0  0  0  0  0  0  0  0  0
   10.7173    0.4125    0.0000 C   0  0  0  0  0  0  0  0  0  0  0  0
   11.4318    0.0000    0.0000 C   0  0  0  0  0  0  0  0  0  0  0  0
   12.1463    0.4125    0.0000 C   0  0  0  0  0  0  0  0  0  0  0  0
   12.8607    0.0000    0.0000 C   0  0  0  0  0  0  0  0  0  0  0  0
   13.5753    0.4125    0.0000 C   0  0  0  0  0  0  0  0  0  0  0  0
   13.5753    1.2375    0.0000 O   0  0  0  0  0  0  0  0  0  0  0  0
   14.2897    0.0000    0.0000 O   0  0  0  0  0  0  0  0  0  0  0  0
  1  2  1  0  0  0  0
  2  3  1  0  0  0  0
  3  4  1  0  0  0  0
  4  5  1  0  0  0  0
  5  6  1  0  0  0  0
  6  7  1  0  0  0  0
  6  8  1  0  0  0  0
  8  9  2  0  0  0  0
  9 10  1  0  0  0  0
 10 11  2  0  0  0  0
 11 12  1  0  0  0  0
 12 13  1  0  0  0  0
 13 14  2  0  0  0  0
 14 15  1  0  0  0  0
 15 16  1  0  0  0  0
 16 17  2  0  0  0  0
 17 18  1  0  0  0  0
 18 19  1  0  0  0  0
 19 20  1  0  0  0  0
 20 21  1  0  0  0  0
 21 22  2  0  0  0  0
 21 23  1  0  0  0  0
M  END
>  <CdId>
30

>  <Mol Weight>
320.47

>  <Formula>
C20H32O3

>  <Name>
15(S)-HETE

>  <Mol_ID>
230

>  <MolWeight>
320.47

>  <LogD>
2.82

$$$$
15(S)-HETRE
  Mrv2113 02112212262D          

 23 22  0  0  0  0            999 V2000
    0.0000    0.0000    0.0000 C   0  0  0  0  0  0  0  0  0  0  0  0
    0.7145    0.4125    0.0000 C   0  0  0  0  0  0  0  0  0  0  0  0
    1.4290    0.0000    0.0000 C   0  0  0  0  0  0  0  0  0  0  0  0
    2.1435    0.4125    0.0000 C   0  0  0  0  0  0  0  0  0  0  0  0
    2.8579    0.0000    0.0000 C   0  0  0  0  0  0  0  0  0  0  0  0
    3.5724    0.4125    0.0000 C   0  0  0  0  0  0  0  0  0  0  0  0
    3.5724    1.2375    0.0000 O   0  0  0  0  0  0  0  0  0  0  0  0
    4.2869    0.0000    0.0000 C   0  0  0  0  0  0  0  0  0  0  0  0
    5.0014    0.4125    0.0000 C   0  0  0  0  0  0  0  0  0  0  0  0
    5.7159    0.0000    0.0000 C   0  0  0  0  0  0  0  0  0  0  0  0
    6.4304    0.4125    0.0000 C   0  0  0  0  0  0  0  0  0  0  0  0
    7.1449    0.0000    0.0000 C   0  0  0  0  0  0  0  0  0  0  0  0
    7.8594    0.4125    0.0000 C   0  0  0  0  0  0  0  0  0  0  0  0
    8.5738    0.0000    0.0000 C   0  0  0  0  0  0  0  0  0  0  0  0
    9.2883    0.4125    0.0000 C   0  0  0  0  0  0  0  0  0  0  0  0
   10.0028    0.0000    0.0000 C   0  0  0  0  0  0  0  0  0  0  0  0
   10.7173    0.4125    0.0000 C   0  0  0  0  0  0  0  0  0  0  0  0
   11.4318    0.0000    0.0000 C   0  0  0  0  0  0  0  0  0  0  0  0
   12.1463    0.4125    0.0000 C   0  0  0  0  0  0  0  0  0  0  0  0
   12.8607    0.0000    0.0000 C   0  0  0  0  0  0  0  0  0  0  0  0
   13.5753    0.4125    0.0000 C   0  0  0  0  0  0  0  0  0  0  0  0
   13.5753    1.2375    0.0000 O   0  0  0  0  0  0  0  0  0  0  0  0
   14.2897    0.0000    0.0000 O   0  0  0  0  0  0  0  0  0  0  0  0
  1  2  1  0  0  0  0
  2  3  1  0  0  0  0
  3  4  1  0  0  0  0
  4  5  1  0  0  0  0
  5  6  1  0  0  0  0
  6  7  1  0  0  0  0
  6  8  1  0  0  0  0
  8  9  2  0  0  0  0
  9 10  1  0  0  0  0
 10 11  2  0  0  0  0
 11 12  1  0  0  0  0
 12 13  1  0  0  0  0
 13 14  2  0  0  0  0
 14 15  1  0  0  0  0
 15 16  1  0  0  0  0
 16 17  1  0  0  0  0
 17 18  1  0  0  0  0
 18 19  1  0  0  0  0
 19 20  1  0  0  0  0
 20 21  1  0  0  0  0
 21 22  2  0  0  0  0
 21 23  1  0  0  0  0
M  END
>  <CdId>
31

>  <Mol Weight>
322.49

>  <Formula>
C20H34O3

>  <Name>
15(S)-HETRE

>  <Mol_ID>
231

>  <MolWeight>
322.49

>  <LogD>
3.24

$$$$
15(S)-HPEDE
  Mrv2113 02112212262D          

 24 23  0  0  0  0            999 V2000
   10.0028    4.1251    0.0000 C   0  0  0  0  0  0  0  0  0  0  0  0
   10.7173    3.7126    0.0000 C   0  0  0  0  0  0  0  0  0  0  0  0
   10.7173    2.8876    0.0000 C   0  0  0  0  0  0  0  0  0  0  0  0
   11.4318    2.4751    0.0000 C   0  0  0  0  0  0  0  0  0  0  0  0
   11.4318    1.6500    0.0000 C   0  0  0  0  0  0  0  0  0  0  0  0
   10.7173    1.2375    0.0000 C   0  0  0  0  0  0  0  0  0  0  0  0
   10.7173    0.4125    0.0000 O   0  0  0  0  0  0  0  0  0  0  0  0
   11.4318    0.0000    0.0000 O   0  0  0  0  0  0  0  0  0  0  0  0
   10.0028    1.6500    0.0000 C   0  0  0  0  0  0  0  0  0  0  0  0
    9.2883    1.2375    0.0000 C   0  0  0  0  0  0  0  0  0  0  0  0
    8.5738    1.6500    0.0000 C   0  0  0  0  0  0  0  0  0  0  0  0
    7.8594    1.2375    0.0000 C   0  0  0  0  0  0  0  0  0  0  0  0
    7.1449    1.6500    0.0000 C   0  0  0  0  0  0  0  0  0  0  0  0
    6.4304    1.2375    0.0000 C   0  0  0  0  0  0  0  0  0  0  0  0
    5.7159    1.6500    0.0000 C   0  0  0  0  0  0  0  0  0  0  0  0
    5.0014    1.2375    0.0000 C   0  0  0  0  0  0  0  0  0  0  0  0
    4.2869    1.6500    0.0000 C   0  0  0  0  0  0  0  0  0  0  0  0
    3.5724    1.2375    0.0000 C   0  0  0  0  0  0  0  0  0  0  0  0
    2.8579    1.6500    0.0000 C   0  0  0  0  0  0  0  0  0  0  0  0
    2.1435    1.2375    0.0000 C   0  0  0  0  0  0  0  0  0  0  0  0
    1.4290    1.6500    0.0000 C   0  0  0  0  0  0  0  0  0  0  0  0
    0.7145    1.2375    0.0000 C   0  0  0  0  0  0  0  0  0  0  0  0
    0.7145    0.4125    0.0000 O   0  0  0  0  0  0  0  0  0  0  0  0
    0.0000    1.6500    0.0000 O   0  0  0  0  0  0  0  0  0  0  0  0
  1  2  1  0  0  0  0
  2  3  1  0  0  0  0
  3  4  1  0  0  0  0
  4  5  1  0  0  0  0
  5  6  1  0  0  0  0
  6  7  1  0  0  0  0
  7  8  1  0  0  0  0
  6  9  1  0  0  0  0
  9 10  2  0  0  0  0
 10 11  1  0  0  0  0
 11 12  2  0  0  0  0
 12 13  1  0  0  0  0
 13 14  1  0  0  0  0
 14 15  1  0  0  0  0
 15 16  1  0  0  0  0
 16 17  1  0  0  0  0
 17 18  1  0  0  0  0
 18 19  1  0  0  0  0
 19 20  1  0  0  0  0
 20 21  1  0  0  0  0
 21 22  1  0  0  0  0
 22 23  2  0  0  0  0
 22 24  1  0  0  0  0
M  END
>  <CdId>
32

>  <Mol Weight>
340.50

>  <Formula>
C20H36O4

>  <Name>
15(S)-HPEDE

>  <Mol_ID>
232

>  <MolWeight>
340.50

>  <LogD>
4.11

$$$$
15(S)-HPEPE
  Mrv2113 02112212262D          

 24 23  0  0  0  0            999 V2000
   10.0028    4.1251    0.0000 C   0  0  0  0  0  0  0  0  0  0  0  0
   10.7173    3.7126    0.0000 C   0  0  0  0  0  0  0  0  0  0  0  0
   10.7173    2.8876    0.0000 C   0  0  0  0  0  0  0  0  0  0  0  0
   11.4318    2.4751    0.0000 C   0  0  0  0  0  0  0  0  0  0  0  0
   11.4318    1.6500    0.0000 C   0  0  0  0  0  0  0  0  0  0  0  0
   10.7173    1.2375    0.0000 C   0  0  0  0  0  0  0  0  0  0  0  0
   10.7173    0.4125    0.0000 O   0  0  0  0  0  0  0  0  0  0  0  0
   11.4318    0.0000    0.0000 O   0  0  0  0  0  0  0  0  0  0  0  0
   10.0028    1.6500    0.0000 C   0  0  0  0  0  0  0  0  0  0  0  0
    9.2883    1.2375    0.0000 C   0  0  0  0  0  0  0  0  0  0  0  0
    8.5738    1.6500    0.0000 C   0  0  0  0  0  0  0  0  0  0  0  0
    7.8594    1.2375    0.0000 C   0  0  0  0  0  0  0  0  0  0  0  0
    7.1449    1.6500    0.0000 C   0  0  0  0  0  0  0  0  0  0  0  0
    6.4304    1.2375    0.0000 C   0  0  0  0  0  0  0  0  0  0  0  0
    5.7159    1.6500    0.0000 C   0  0  0  0  0  0  0  0  0  0  0  0
    5.0014    1.2375    0.0000 C   0  0  0  0  0  0  0  0  0  0  0  0
    4.2869    1.6500    0.0000 C   0  0  0  0  0  0  0  0  0  0  0  0
    3.5724    1.2375    0.0000 C   0  0  0  0  0  0  0  0  0  0  0  0
    2.8579    1.6500    0.0000 C   0  0  0  0  0  0  0  0  0  0  0  0
    2.1435    1.2375    0.0000 C   0  0  0  0  0  0  0  0  0  0  0  0
    1.4290    1.6500    0.0000 C   0  0  0  0  0  0  0  0  0  0  0  0
    0.7145    1.2375    0.0000 C   0  0  0  0  0  0  0  0  0  0  0  0
    0.7145    0.4125    0.0000 O   0  0  0  0  0  0  0  0  0  0  0  0
    0.0000    1.6500    0.0000 O   0  0  0  0  0  0  0  0  0  0  0  0
  1  2  1  0  0  0  0
  2  3  1  0  0  0  0
  3  4  2  0  0  0  0
  4  5  1  0  0  0  0
  5  6  1  0  0  0  0
  6  7  1  0  0  0  0
  7  8  1  0  0  0  0
  6  9  1  0  0  0  0
  9 10  2  0  0  0  0
 10 11  1  0  0  0  0
 11 12  2  0  0  0  0
 12 13  1  0  0  0  0
 13 14  1  0  0  0  0
 14 15  2  0  0  0  0
 15 16  1  0  0  0  0
 16 17  1  0  0  0  0
 17 18  2  0  0  0  0
 18 19  1  0  0  0  0
 19 20  1  0  0  0  0
 20 21  1  0  0  0  0
 21 22  1  0  0  0  0
 22 23  2  0  0  0  0
 22 24  1  0  0  0  0
M  END
>  <CdId>
33

>  <Mol Weight>
334.46

>  <Formula>
C20H30O4

>  <Name>
15(S)-HPEPE

>  <Mol_ID>
233

>  <MolWeight>
334.45

>  <LogD>
2.91

$$$$
15(S)-HPETE
  Mrv2113 02112212262D          

 24 23  0  0  0  0            999 V2000
   10.0028    4.1251    0.0000 C   0  0  0  0  0  0  0  0  0  0  0  0
   10.7173    3.7126    0.0000 C   0  0  0  0  0  0  0  0  0  0  0  0
   10.7173    2.8876    0.0000 C   0  0  0  0  0  0  0  0  0  0  0  0
   11.4318    2.4751    0.0000 C   0  0  0  0  0  0  0  0  0  0  0  0
   11.4318    1.6500    0.0000 C   0  0  0  0  0  0  0  0  0  0  0  0
   10.7173    1.2375    0.0000 C   0  0  0  0  0  0  0  0  0  0  0  0
   10.7173    0.4125    0.0000 O   0  0  0  0  0  0  0  0  0  0  0  0
   11.4318    0.0000    0.0000 O   0  0  0  0  0  0  0  0  0  0  0  0
   10.0028    1.6500    0.0000 C   0  0  0  0  0  0  0  0  0  0  0  0
    9.2883    1.2375    0.0000 C   0  0  0  0  0  0  0  0  0  0  0  0
    8.5738    1.6500    0.0000 C   0  0  0  0  0  0  0  0  0  0  0  0
    7.8594    1.2375    0.0000 C   0  0  0  0  0  0  0  0  0  0  0  0
    7.1449    1.6500    0.0000 C   0  0  0  0  0  0  0  0  0  0  0  0
    6.4304    1.2375    0.0000 C   0  0  0  0  0  0  0  0  0  0  0  0
    5.7159    1.6500    0.0000 C   0  0  0  0  0  0  0  0  0  0  0  0
    5.0014    1.2375    0.0000 C   0  0  0  0  0  0  0  0  0  0  0  0
    4.2869    1.6500    0.0000 C   0  0  0  0  0  0  0  0  0  0  0  0
    3.5724    1.2375    0.0000 C   0  0  0  0  0  0  0  0  0  0  0  0
    2.8579    1.6500    0.0000 C   0  0  0  0  0  0  0  0  0  0  0  0
    2.1435    1.2375    0.0000 C   0  0  0  0  0  0  0  0  0  0  0  0
    1.4290    1.6500    0.0000 C   0  0  0  0  0  0  0  0  0  0  0  0
    0.7145    1.2375    0.0000 C   0  0  0  0  0  0  0  0  0  0  0  0
    0.7145    0.4125    0.0000 O   0  0  0  0  0  0  0  0  0  0  0  0
    0.0000    1.6500    0.0000 O   0  0  0  0  0  0  0  0  0  0  0  0
  1  2  1  0  0  0  0
  2  3  1  0  0  0  0
  3  4  1  0  0  0  0
  4  5  1  0  0  0  0
  5  6  1  0  0  0  0
  6  7  1  0  0  0  0
  7  8  1  0  0  0  0
  6  9  1  0  0  0  0
  9 10  2  0  0  0  0
 10 11  1  0  0  0  0
 11 12  2  0  0  0  0
 12 13  1  0  0  0  0
 13 14  1  0  0  0  0
 14 15  2  0  0  0  0
 15 16  1  0  0  0  0
 16 17  1  0  0  0  0
 17 18  2  0  0  0  0
 18 19  1  0  0  0  0
 19 20  1  0  0  0  0
 20 21  1  0  0  0  0
 21 22  1  0  0  0  0
 22 23  2  0  0  0  0
 22 24  1  0  0  0  0
M  END
>  <CdId>
34

>  <Mol Weight>
336.47

>  <Formula>
C20H32O4

>  <Name>
15(S)-HPETE

>  <Mol_ID>
234

>  <MolWeight>
336.47

>  <LogD>
3.27

$$$$
15-keto-prostaglandin E2
  Mrv2113 02112212262D          

 25 25  0  0  0  0            999 V2000
    6.8870    2.8810    0.0000 C   0  0  0  0  0  0  0  0  0  0  0  0
    6.4745    2.1665    0.0000 C   0  0  0  0  0  0  0  0  0  0  0  0
    5.6495    2.1665    0.0000 C   0  0  0  0  0  0  0  0  0  0  0  0
    5.2370    1.4521    0.0000 C   0  0  0  0  0  0  0  0  0  0  0  0
    4.4120    1.4521    0.0000 C   0  0  0  0  0  0  0  0  0  0  0  0
    3.9995    0.7376    0.0000 C   0  0  0  0  0  0  0  0  0  0  0  0
    4.4120    0.0231    0.0000 O   0  0  0  0  0  0  0  0  0  0  0  0
    3.1745    0.7376    0.0000 C   0  0  0  0  0  0  0  0  0  0  0  0
    2.7620    1.4521    0.0000 C   0  0  0  0  0  0  0  0  0  0  0  0
    1.9370    1.4521    0.0000 C   0  0  0  0  0  0  0  0  0  0  0  0
    1.4521    0.7846    0.0000 C   0  0  0  0  0  0  0  0  0  0  0  0
    1.7070    0.0000    0.0000 O   0  0  0  0  0  0  0  0  0  0  0  0
    0.6674    1.0396    0.0000 C   0  0  0  0  0  0  0  0  0  0  0  0
    0.6674    1.8646    0.0000 C   0  0  0  0  0  0  0  0  0  0  0  0
    0.0000    2.3495    0.0000 O   0  0  0  0  0  0  0  0  0  0  0  0
    1.4521    2.1195    0.0000 C   0  0  0  0  0  0  0  0  0  0  0  0
    1.7070    2.9041    0.0000 C   0  0  0  0  0  0  0  0  0  0  0  0
    1.1237    3.4875    0.0000 C   0  0  0  0  0  0  0  0  0  0  0  0
    1.3371    4.2844    0.0000 C   0  0  0  0  0  0  0  0  0  0  0  0
    0.7538    4.8677    0.0000 C   0  0  0  0  0  0  0  0  0  0  0  0
    0.9673    5.6646    0.0000 C   0  0  0  0  0  0  0  0  0  0  0  0
    0.3840    6.2480    0.0000 C   0  0  0  0  0  0  0  0  0  0  0  0
    0.5975    7.0449    0.0000 C   0  0  0  0  0  0  0  0  0  0  0  0
    0.0141    7.6282    0.0000 O   0  0  0  0  0  0  0  0  0  0  0  0
    1.3944    7.2584    0.0000 O   0  0  0  0  0  0  0  0  0  0  0  0
  1  2  1  0  0  0  0
  2  3  1  0  0  0  0
  3  4  1  0  0  0  0
  4  5  1  0  0  0  0
  5  6  1  0  0  0  0
  6  7  2  0  0  0  0
  6  8  1  0  0  0  0
  8  9  2  0  0  0  0
  9 10  1  0  0  0  0
 10 16  1  0  0  0  0
 10 11  1  0  0  0  0
 11 12  1  0  0  0  0
 11 13  1  0  0  0  0
 13 14  1  0  0  0  0
 14 15  2  0  0  0  0
 14 16  1  0  0  0  0
 16 17  1  0  0  0  0
 17 18  1  0  0  0  0
 18 19  2  0  0  0  0
 19 20  1  0  0  0  0
 20 21  1  0  0  0  0
 21 22  1  0  0  0  0
 22 23  1  0  0  0  0
 23 24  2  0  0  0  0
 23 25  1  0  0  0  0
M  END
>  <CdId>
35

>  <Mol Weight>
350.45

>  <Formula>
C20H30O5

>  <Name>
15-keto-prostaglandin E2

>  <Mol_ID>
235

>  <MolWeight>
350.45

>  <LogD>
0.68

$$$$
15-keto-prostaglandin F2a
  Mrv2113 02112212262D          

 25 25  0  0  0  0            999 V2000
    6.8870    2.8810    0.0000 C   0  0  0  0  0  0  0  0  0  0  0  0
    6.4745    2.1665    0.0000 C   0  0  0  0  0  0  0  0  0  0  0  0
    5.6495    2.1665    0.0000 C   0  0  0  0  0  0  0  0  0  0  0  0
    5.2370    1.4521    0.0000 C   0  0  0  0  0  0  0  0  0  0  0  0
    4.4120    1.4521    0.0000 C   0  0  0  0  0  0  0  0  0  0  0  0
    3.9995    0.7376    0.0000 C   0  0  0  0  0  0  0  0  0  0  0  0
    4.4120    0.0231    0.0000 O   0  0  0  0  0  0  0  0  0  0  0  0
    3.1745    0.7376    0.0000 C   0  0  0  0  0  0  0  0  0  0  0  0
    2.7620    1.4521    0.0000 C   0  0  0  0  0  0  0  0  0  0  0  0
    1.9370    1.4521    0.0000 C   0  0  0  0  0  0  0  0  0  0  0  0
    1.4521    0.7846    0.0000 C   0  0  0  0  0  0  0  0  0  0  0  0
    1.7070    0.0000    0.0000 O   0  0  0  0  0  0  0  0  0  0  0  0
    0.6674    1.0396    0.0000 C   0  0  0  0  0  0  0  0  0  0  0  0
    0.6674    1.8646    0.0000 C   0  0  0  0  0  0  0  0  0  0  0  0
    0.0000    2.3495    0.0000 O   0  0  0  0  0  0  0  0  0  0  0  0
    1.4521    2.1195    0.0000 C   0  0  0  0  0  0  0  0  0  0  0  0
    1.7070    2.9041    0.0000 C   0  0  0  0  0  0  0  0  0  0  0  0
    1.1237    3.4875    0.0000 C   0  0  0  0  0  0  0  0  0  0  0  0
    1.3371    4.2844    0.0000 C   0  0  0  0  0  0  0  0  0  0  0  0
    0.7538    4.8677    0.0000 C   0  0  0  0  0  0  0  0  0  0  0  0
    0.9673    5.6646    0.0000 C   0  0  0  0  0  0  0  0  0  0  0  0
    0.3840    6.2480    0.0000 C   0  0  0  0  0  0  0  0  0  0  0  0
    0.5975    7.0449    0.0000 C   0  0  0  0  0  0  0  0  0  0  0  0
    0.0141    7.6282    0.0000 O   0  0  0  0  0  0  0  0  0  0  0  0
    1.3944    7.2584    0.0000 O   0  0  0  0  0  0  0  0  0  0  0  0
  1  2  1  0  0  0  0
  2  3  1  0  0  0  0
  3  4  1  0  0  0  0
  4  5  1  0  0  0  0
  5  6  1  0  0  0  0
  6  7  2  0  0  0  0
  6  8  1  0  0  0  0
  8  9  2  0  0  0  0
  9 10  1  0  0  0  0
 10 16  1  0  0  0  0
 10 11  1  0  0  0  0
 11 12  1  0  0  0  0
 11 13  1  0  0  0  0
 13 14  1  0  0  0  0
 14 15  1  0  0  0  0
 14 16  1  0  0  0  0
 16 17  1  0  0  0  0
 17 18  1  0  0  0  0
 18 19  2  0  0  0  0
 19 20  1  0  0  0  0
 20 21  1  0  0  0  0
 21 22  1  0  0  0  0
 22 23  1  0  0  0  0
 23 24  2  0  0  0  0
 23 25  1  0  0  0  0
M  END
>  <CdId>
36

>  <Mol Weight>
352.47

>  <Formula>
C20H32O5

>  <Name>
15-keto-prostaglandin F2a

>  <Mol_ID>
236

>  <MolWeight>
352.47

>  <LogD>
0.10

$$$$
15-ketoeicosatetraenoic acid
  Mrv2113 02112212262D          

 23 22  0  0  0  0            999 V2000
    0.0000    0.0000    0.0000 C   0  0  0  0  0  0  0  0  0  0  0  0
    0.7145    0.4125    0.0000 C   0  0  0  0  0  0  0  0  0  0  0  0
    1.4290    0.0000    0.0000 C   0  0  0  0  0  0  0  0  0  0  0  0
    2.1435    0.4125    0.0000 C   0  0  0  0  0  0  0  0  0  0  0  0
    2.8579    0.0000    0.0000 C   0  0  0  0  0  0  0  0  0  0  0  0
    3.5724    0.4125    0.0000 C   0  0  0  0  0  0  0  0  0  0  0  0
    3.5724    1.2375    0.0000 O   0  0  0  0  0  0  0  0  0  0  0  0
    4.2869    0.0000    0.0000 C   0  0  0  0  0  0  0  0  0  0  0  0
    5.0014    0.4125    0.0000 C   0  0  0  0  0  0  0  0  0  0  0  0
    5.7159    0.0000    0.0000 C   0  0  0  0  0  0  0  0  0  0  0  0
    6.4304    0.4125    0.0000 C   0  0  0  0  0  0  0  0  0  0  0  0
    7.1449    0.0000    0.0000 C   0  0  0  0  0  0  0  0  0  0  0  0
    7.8594    0.4125    0.0000 C   0  0  0  0  0  0  0  0  0  0  0  0
    8.5738    0.0000    0.0000 C   0  0  0  0  0  0  0  0  0  0  0  0
    9.2883    0.4125    0.0000 C   0  0  0  0  0  0  0  0  0  0  0  0
   10.0028    0.0000    0.0000 C   0  0  0  0  0  0  0  0  0  0  0  0
   10.7173    0.4125    0.0000 C   0  0  0  0  0  0  0  0  0  0  0  0
   11.4318    0.0000    0.0000 C   0  0  0  0  0  0  0  0  0  0  0  0
   12.1463    0.4125    0.0000 C   0  0  0  0  0  0  0  0  0  0  0  0
   12.8607    0.0000    0.0000 C   0  0  0  0  0  0  0  0  0  0  0  0
   13.5753    0.4125    0.0000 C   0  0  0  0  0  0  0  0  0  0  0  0
   13.5753    1.2375    0.0000 O   0  0  0  0  0  0  0  0  0  0  0  0
   14.2897    0.0000    0.0000 O   0  0  0  0  0  0  0  0  0  0  0  0
  1  2  1  0  0  0  0
  2  3  1  0  0  0  0
  3  4  1  0  0  0  0
  4  5  1  0  0  0  0
  5  6  1  0  0  0  0
  6  7  2  0  0  0  0
  6  8  1  0  0  0  0
  8  9  2  0  0  0  0
  9 10  1  0  0  0  0
 10 11  2  0  0  0  0
 11 12  1  0  0  0  0
 12 13  1  0  0  0  0
 13 14  2  0  0  0  0
 14 15  1  0  0  0  0
 15 16  1  0  0  0  0
 16 17  2  0  0  0  0
 17 18  1  0  0  0  0
 18 19  1  0  0  0  0
 19 20  1  0  0  0  0
 20 21  1  0  0  0  0
 21 22  2  0  0  0  0
 21 23  1  0  0  0  0
M  END
>  <CdId>
37

>  <Mol Weight>
318.46

>  <Formula>
C20H30O3

>  <Name>
15-ketoeicosatetraenoic acid

>  <Mol_ID>
237

>  <MolWeight>
318.46

>  <LogD>
3.23

$$$$
15D-prostaglandin J2
  Mrv2113 02112212262D          

 23 23  0  0  0  0            999 V2000
   11.5786    1.3561    0.0000 C   0  0  0  0  0  0  0  0  0  0  0  0
   10.8641    0.9436    0.0000 C   0  0  0  0  0  0  0  0  0  0  0  0
   10.1497    1.3561    0.0000 C   0  0  0  0  0  0  0  0  0  0  0  0
    9.4352    0.9436    0.0000 C   0  0  0  0  0  0  0  0  0  0  0  0
    8.7207    1.3561    0.0000 C   0  0  0  0  0  0  0  0  0  0  0  0
    8.0063    0.9436    0.0000 C   0  0  0  0  0  0  0  0  0  0  0  0
    7.2918    1.3561    0.0000 C   0  0  0  0  0  0  0  0  0  0  0  0
    6.5773    0.9436    0.0000 C   0  0  0  0  0  0  0  0  0  0  0  0
    5.8629    1.3561    0.0000 C   0  0  0  0  0  0  0  0  0  0  0  0
    5.1092    1.0205    0.0000 C   0  0  0  0  0  0  0  0  0  0  0  0
    4.9376    0.2135    0.0000 C   0  0  0  0  0  0  0  0  0  0  0  0
    4.1407    0.0000    0.0000 C   0  0  0  0  0  0  0  0  0  0  0  0
    3.5574    0.5834    0.0000 C   0  0  0  0  0  0  0  0  0  0  0  0
    2.7605    0.3698    0.0000 C   0  0  0  0  0  0  0  0  0  0  0  0
    2.1771    0.9532    0.0000 C   0  0  0  0  0  0  0  0  0  0  0  0
    1.3802    0.7397    0.0000 C   0  0  0  0  0  0  0  0  0  0  0  0
    0.7969    1.3231    0.0000 C   0  0  0  0  0  0  0  0  0  0  0  0
    0.0000    1.1095    0.0000 O   0  0  0  0  0  0  0  0  0  0  0  0
    1.0104    2.1200    0.0000 O   0  0  0  0  0  0  0  0  0  0  0  0
    4.5571    1.6336    0.0000 C   0  0  0  0  0  0  0  0  0  0  0  0
    4.9696    2.3481    0.0000 C   0  0  0  0  0  0  0  0  0  0  0  0
    5.7766    2.1765    0.0000 C   0  0  0  0  0  0  0  0  0  0  0  0
    6.3897    2.7286    0.0000 O   0  0  0  0  0  0  0  0  0  0  0  0
  1  2  1  0  0  0  0
  2  3  1  0  0  0  0
  3  4  1  0  0  0  0
  4  5  1  0  0  0  0
  5  6  1  0  0  0  0
  6  7  2  0  0  0  0
  7  8  1  0  0  0  0
  8  9  2  0  0  0  0
  9 22  1  0  0  0  0
  9 10  1  0  0  0  0
 10 11  1  0  0  0  0
 11 12  1  0  0  0  0
 12 13  2  0  0  0  0
 13 14  1  0  0  0  0
 14 15  1  0  0  0  0
 15 16  1  0  0  0  0
 16 17  1  0  0  0  0
 17 18  2  0  0  0  0
 17 19  1  0  0  0  0
 10 20  1  0  0  0  0
 20 21  2  0  0  0  0
 21 22  1  0  0  0  0
 22 23  2  0  0  0  0
M  END
>  <CdId>
38

>  <Mol Weight>
316.44

>  <Formula>
C20H28O3

>  <Name>
15D-prostaglandin J2

>  <Mol_ID>
238

>  <MolWeight>
316.44

>  <LogD>
2.78

$$$$
16,16-dimethylprostaglandin E2
  Mrv2113 02112212262D          

 27 27  0  0  0  0            999 V2000
    4.0954    0.7145    0.0000 C   0  0  0  0  0  0  0  0  0  0  0  0
    3.3809    1.1270    0.0000 C   0  0  0  0  0  0  0  0  0  0  0  0
    2.6665    0.7145    0.0000 C   0  0  0  0  0  0  0  0  0  0  0  0
    1.9520    1.1270    0.0000 C   0  0  0  0  0  0  0  0  0  0  0  0
    1.2375    0.7145    0.0000 C   0  0  0  0  0  0  0  0  0  0  0  0
    0.5231    0.3020    0.0000 C   0  0  0  0  0  0  0  0  0  0  0  0
    1.6500    0.0000    0.0000 C   0  0  0  0  0  0  0  0  0  0  0  0
    0.8250    1.4290    0.0000 C   0  0  0  0  0  0  0  0  0  0  0  0
    0.0000    1.4290    0.0000 O   0  0  0  0  0  0  0  0  0  0  0  0
    1.2375    2.1434    0.0000 C   0  0  0  0  0  0  0  0  0  0  0  0
    2.0625    2.1434    0.0000 C   0  0  0  0  0  0  0  0  0  0  0  0
    2.4750    2.8579    0.0000 C   0  0  0  0  0  0  0  0  0  0  0  0
    2.1395    3.6116    0.0000 C   0  0  0  0  0  0  0  0  0  0  0  0
    1.3325    3.7831    0.0000 O   0  0  0  0  0  0  0  0  0  0  0  0
    2.7526    4.1636    0.0000 C   0  0  0  0  0  0  0  0  0  0  0  0
    3.4670    3.7511    0.0000 C   0  0  0  0  0  0  0  0  0  0  0  0
    4.2207    4.0867    0.0000 O   0  0  0  0  0  0  0  0  0  0  0  0
    3.2955    2.9441    0.0000 C   0  0  0  0  0  0  0  0  0  0  0  0
    3.8475    2.3311    0.0000 C   0  0  0  0  0  0  0  0  0  0  0  0
    4.6444    2.5446    0.0000 C   0  0  0  0  0  0  0  0  0  0  0  0
    5.2278    1.9612    0.0000 C   0  0  0  0  0  0  0  0  0  0  0  0
    6.0247    2.1747    0.0000 C   0  0  0  0  0  0  0  0  0  0  0  0
    6.6081    1.5914    0.0000 C   0  0  0  0  0  0  0  0  0  0  0  0
    7.4049    1.8049    0.0000 C   0  0  0  0  0  0  0  0  0  0  0  0
    7.9883    1.2215    0.0000 C   0  0  0  0  0  0  0  0  0  0  0  0
    8.7852    1.4350    0.0000 O   0  0  0  0  0  0  0  0  0  0  0  0
    7.7748    0.4246    0.0000 O   0  0  0  0  0  0  0  0  0  0  0  0
  1  2  1  0  0  0  0
  2  3  1  0  0  0  0
  3  4  1  0  0  0  0
  4  5  1  0  0  0  0
  5  6  1  0  0  0  0
  5  7  1  0  0  0  0
  5  8  1  0  0  0  0
  8  9  1  0  0  0  0
  8 10  1  0  0  0  0
 10 11  2  0  0  0  0
 11 12  1  0  0  0  0
 12 18  1  0  0  0  0
 12 13  1  0  0  0  0
 13 14  1  0  0  0  0
 13 15  1  0  0  0  0
 15 16  1  0  0  0  0
 16 17  2  0  0  0  0
 16 18  1  0  0  0  0
 18 19  1  0  0  0  0
 19 20  1  0  0  0  0
 20 21  2  0  0  0  0
 21 22  1  0  0  0  0
 22 23  1  0  0  0  0
 23 24  1  0  0  0  0
 24 25  1  0  0  0  0
 25 26  2  0  0  0  0
 25 27  1  0  0  0  0
M  END
>  <CdId>
39

>  <Mol Weight>
380.52

>  <Formula>
C22H36O5

>  <Name>
16,16-dimethylprostaglandin E2

>  <Mol_ID>
239

>  <MolWeight>
380.52

>  <LogD>
1.01

$$$$
16,17-Dehydrofalcarindiol
  Mrv2113 02112212262D          

 19 18  0  0  0  0            999 V2000
    0.7145    3.7126    0.0000 O   0  0  0  0  0  0  0  0  0  0  0  0
    0.7145    2.8876    0.0000 C   0  0  0  0  0  0  0  0  0  0  0  0
    0.0000    2.4751    0.0000 C   0  0  0  0  0  0  0  0  0  0  0  0
    0.0000    1.6500    0.0000 C   0  0  0  0  0  0  0  0  0  0  0  0
    1.4290    2.4751    0.0000 C   0  0  0  0  0  0  0  0  0  0  0  0
    2.1435    2.0625    0.0000 C   0  0  0  0  0  0  0  0  0  0  0  0
    2.8579    1.6500    0.0000 C   0  0  0  0  0  0  0  0  0  0  0  0
    3.5724    1.2375    0.0000 C   0  0  0  0  0  0  0  0  0  0  0  0
    4.2869    0.8250    0.0000 C   0  0  0  0  0  0  0  0  0  0  0  0
    4.2869    0.0000    0.0000 O   0  0  0  0  0  0  0  0  0  0  0  0
    5.0014    1.2375    0.0000 C   0  0  0  0  0  0  0  0  0  0  0  0
    5.7159    0.8250    0.0000 C   0  0  0  0  0  0  0  0  0  0  0  0
    6.4304    1.2375    0.0000 C   0  0  0  0  0  0  0  0  0  0  0  0
    7.1449    0.8250    0.0000 C   0  0  0  0  0  0  0  0  0  0  0  0
    7.8594    1.2375    0.0000 C   0  0  0  0  0  0  0  0  0  0  0  0
    8.5738    0.8250    0.0000 C   0  0  0  0  0  0  0  0  0  0  0  0
    9.2883    1.2375    0.0000 C   0  0  0  0  0  0  0  0  0  0  0  0
   10.0028    0.8250    0.0000 C   0  0  0  0  0  0  0  0  0  0  0  0
   10.7173    1.2375    0.0000 C   0  0  0  0  0  0  0  0  0  0  0  0
  1  2  1  0  0  0  0
  2  3  1  0  0  0  0
  3  4  2  0  0  0  0
  2  5  1  0  0  0  0
  5  6  3  0  0  0  0
  6  7  1  0  0  0  0
  7  8  3  0  0  0  0
  8  9  1  0  0  0  0
  9 10  1  0  0  0  0
  9 11  1  0  0  0  0
 11 12  2  0  0  0  0
 12 13  1  0  0  0  0
 13 14  1  0  0  0  0
 14 15  1  0  0  0  0
 15 16  1  0  0  0  0
 16 17  1  0  0  0  0
 17 18  1  0  0  0  0
 18 19  2  0  0  0  0
M  END
>  <CdId>
40

>  <Mol Weight>
258.36

>  <Formula>
C17H22O2

>  <Name>
16,17-Dehydrofalcarindiol

>  <Mol_ID>
240

>  <MolWeight>
258.36

>  <LogD>
4.07

$$$$
16,17-Dehydrofalcarinol
  Mrv2113 02112212262D          

 18 17  0  0  0  0            999 V2000
   10.7173    1.6500    0.0000 O   0  0  0  0  0  0  0  0  0  0  0  0
   10.0028    2.0625    0.0000 C   0  0  0  0  0  0  0  0  0  0  0  0
   10.0028    2.8876    0.0000 C   0  0  0  0  0  0  0  0  0  0  0  0
    9.2883    3.3001    0.0000 C   0  0  0  0  0  0  0  0  0  0  0  0
    9.2883    1.6500    0.0000 C   0  0  0  0  0  0  0  0  0  0  0  0
    8.5738    1.2375    0.0000 C   0  0  0  0  0  0  0  0  0  0  0  0
    7.8594    0.8250    0.0000 C   0  0  0  0  0  0  0  0  0  0  0  0
    7.1449    0.4125    0.0000 C   0  0  0  0  0  0  0  0  0  0  0  0
    6.4304    0.0000    0.0000 C   0  0  0  0  0  0  0  0  0  0  0  0
    5.7159    0.4125    0.0000 C   0  0  0  0  0  0  0  0  0  0  0  0
    5.0014    0.0000    0.0000 C   0  0  0  0  0  0  0  0  0  0  0  0
    4.2869    0.4125    0.0000 C   0  0  0  0  0  0  0  0  0  0  0  0
    3.5724    0.0000    0.0000 C   0  0  0  0  0  0  0  0  0  0  0  0
    2.8579    0.4125    0.0000 C   0  0  0  0  0  0  0  0  0  0  0  0
    2.1435    0.0000    0.0000 C   0  0  0  0  0  0  0  0  0  0  0  0
    1.4290    0.4125    0.0000 C   0  0  0  0  0  0  0  0  0  0  0  0
    0.7145    0.0000    0.0000 C   0  0  0  0  0  0  0  0  0  0  0  0
    0.0000    0.4125    0.0000 C   0  0  0  0  0  0  0  0  0  0  0  0
  1  2  1  0  0  0  0
  2  3  1  0  0  0  0
  3  4  2  0  0  0  0
  2  5  1  0  0  0  0
  5  6  3  0  0  0  0
  6  7  1  0  0  0  0
  7  8  3  0  0  0  0
  8  9  1  0  0  0  0
  9 10  1  0  0  0  0
 10 11  2  0  0  0  0
 11 12  1  0  0  0  0
 12 13  1  0  0  0  0
 13 14  1  0  0  0  0
 14 15  1  0  0  0  0
 15 16  1  0  0  0  0
 16 17  1  0  0  0  0
 17 18  2  0  0  0  0
M  END
>  <CdId>
41

>  <Mol Weight>
242.36

>  <Formula>
C17H22O

>  <Name>
16,17-Dehydrofalcarinol

>  <Mol_ID>
241

>  <MolWeight>
242.36

>  <LogD>
5.15

$$$$
17-Dimethylaminolobohedleolide
  Mrv2113 02112212262D          

 26 27  0  0  0  0            999 V2000
    1.6383    4.4489    0.0000 C   0  0  0  0  0  0  0  0  0  0  0  0
    1.0550    3.8655    0.0000 N   0  0  0  0  0  0  0  0  0  0  0  0
    0.2581    4.0790    0.0000 C   0  0  0  0  0  0  0  0  0  0  0  0
    1.3099    3.0809    0.0000 C   0  0  0  0  0  0  0  0  0  0  0  0
    2.0945    2.8260    0.0000 C   0  0  0  0  0  0  0  0  0  0  0  0
    2.4525    3.5693    0.0000 C   0  0  0  0  0  0  0  0  0  0  0  0
    3.0975    4.0836    0.0000 C   0  0  0  0  0  0  0  0  0  0  0  0
    3.9018    4.2672    0.0000 C   0  0  0  0  0  0  0  0  0  0  0  0
    4.7061    4.0836    0.0000 C   0  0  0  0  0  0  0  0  0  0  0  0
    5.3511    3.5693    0.0000 C   0  0  0  0  0  0  0  0  0  0  0  0
    5.7091    2.8260    0.0000 C   0  0  0  0  0  0  0  0  0  0  0  0
    5.7091    2.0010    0.0000 C   0  0  0  0  0  0  0  0  0  0  0  0
    5.3511    1.2576    0.0000 C   0  0  0  0  0  0  0  0  0  0  0  0
    4.7061    0.7433    0.0000 C   0  0  0  0  0  0  0  0  0  0  0  0
    3.9018    0.5597    0.0000 C   0  0  0  0  0  0  0  0  0  0  0  0
    3.0975    0.7433    0.0000 C   0  0  0  0  0  0  0  0  0  0  0  0
    2.4525    1.2576    0.0000 C   0  0  0  0  0  0  0  0  0  0  0  0
    2.0945    2.0010    0.0000 C   0  0  0  0  0  0  0  0  0  0  0  0
    1.3099    1.7460    0.0000 O   0  0  0  0  0  0  0  0  0  0  0  0
    0.8250    2.4135    0.0000 C   0  0  0  0  0  0  0  0  0  0  0  0
    0.0000    2.4135    0.0000 O   0  0  0  0  0  0  0  0  0  0  0  0
    2.7395    0.0000    0.0000 C   0  0  0  0  0  0  0  0  0  0  0  0
    6.5134    1.8174    0.0000 C   0  0  0  0  0  0  0  0  0  0  0  0
    6.7565    1.0291    0.0000 O   0  0  0  0  0  0  0  0  0  0  0  0
    7.0967    2.4007    0.0000 O   0  0  0  0  0  0  0  0  0  0  0  0
    3.9018    5.0922    0.0000 C   0  0  0  0  0  0  0  0  0  0  0  0
  1  2  1  0  0  0  0
  2  3  1  0  0  0  0
  2  4  1  0  0  0  0
  4 20  1  0  0  0  0
  4  5  1  0  0  0  0
  5 18  1  0  0  0  0
  5  6  1  0  0  0  0
  6  7  1  0  0  0  0
  7  8  1  0  0  0  0
  8  9  2  0  0  0  0
  9 10  1  0  0  0  0
 10 11  1  0  0  0  0
 11 12  1  0  0  0  0
 12 13  2  0  0  0  0
 13 14  1  0  0  0  0
 14 15  1  0  0  0  0
 15 16  1  0  0  0  0
 16 17  2  0  0  0  0
 17 18  1  0  0  0  0
 18 19  1  0  0  0  0
 19 20  1  0  0  0  0
 20 21  2  0  0  0  0
 16 22  1  0  0  0  0
 12 23  1  0  0  0  0
 23 24  2  0  0  0  0
 23 25  1  0  0  0  0
  8 26  1  0  0  0  0
M  END
>  <CdId>
42

>  <Mol Weight>
361.48

>  <Formula>
C21H31NO4

>  <Name>
17-Dimethylaminolobohedleolide

>  <Mol_ID>
242

>  <MolWeight>
361.48

>  <LogD>
1.01

$$$$
17-octadecynoic acid
  Mrv2113 02112212262D          

 20 19  0  0  0  0            999 V2000
   10.7173    2.0625    0.0000 O   0  0  0  0  0  0  0  0  0  0  0  0
   11.4318    1.6500    0.0000 C   0  0  0  0  0  0  0  0  0  0  0  0
   12.1463    2.0625    0.0000 O   0  0  0  0  0  0  0  0  0  0  0  0
   11.4318    0.8250    0.0000 C   0  0  0  0  0  0  0  0  0  0  0  0
   10.7173    0.4125    0.0000 C   0  0  0  0  0  0  0  0  0  0  0  0
   10.0028    0.8250    0.0000 C   0  0  0  0  0  0  0  0  0  0  0  0
    9.2883    0.4125    0.0000 C   0  0  0  0  0  0  0  0  0  0  0  0
    8.5738    0.8250    0.0000 C   0  0  0  0  0  0  0  0  0  0  0  0
    7.8594    0.4125    0.0000 C   0  0  0  0  0  0  0  0  0  0  0  0
    7.1449    0.8250    0.0000 C   0  0  0  0  0  0  0  0  0  0  0  0
    6.4304    0.4125    0.0000 C   0  0  0  0  0  0  0  0  0  0  0  0
    5.7159    0.8250    0.0000 C   0  0  0  0  0  0  0  0  0  0  0  0
    5.0014    0.4125    0.0000 C   0  0  0  0  0  0  0  0  0  0  0  0
    4.2869    0.8250    0.0000 C   0  0  0  0  0  0  0  0  0  0  0  0
    3.5724    0.4125    0.0000 C   0  0  0  0  0  0  0  0  0  0  0  0
    2.8579    0.8250    0.0000 C   0  0  0  0  0  0  0  0  0  0  0  0
    2.1435    0.4125    0.0000 C   0  0  0  0  0  0  0  0  0  0  0  0
    1.4290    0.8250    0.0000 C   0  0  0  0  0  0  0  0  0  0  0  0
    0.7145    0.4125    0.0000 C   0  0  0  0  0  0  0  0  0  0  0  0
    0.0000    0.0000    0.0000 C   0  0  0  0  0  0  0  0  0  0  0  0
  1  2  1  0  0  0  0
  2  3  2  0  0  0  0
  2  4  1  0  0  0  0
  4  5  1  0  0  0  0
  5  6  1  0  0  0  0
  6  7  1  0  0  0  0
  7  8  1  0  0  0  0
  8  9  1  0  0  0  0
  9 10  1  0  0  0  0
 10 11  1  0  0  0  0
 11 12  1  0  0  0  0
 12 13  1  0  0  0  0
 13 14  1  0  0  0  0
 14 15  1  0  0  0  0
 15 16  1  0  0  0  0
 16 17  1  0  0  0  0
 17 18  1  0  0  0  0
 18 19  1  0  0  0  0
 19 20  3  0  0  0  0
M  END
>  <CdId>
43

>  <Mol Weight>
280.45

>  <Formula>
C18H32O2

>  <Name>
17-octadecynoic acid

>  <Mol_ID>
243

>  <MolWeight>
280.45

>  <LogD>
3.92

$$$$
17-phenyl-trinor-prostaglandin E2
  Mrv2113 02112212262D          

 28 29  0  0  0  0            999 V2000
    8.7852    2.7347    0.0000 O   0  0  0  0  0  0  0  0  0  0  0  0
    7.9602    2.7347    0.0000 C   0  0  0  0  0  0  0  0  0  0  0  0
    7.5477    3.4492    0.0000 C   0  0  0  0  0  0  0  0  0  0  0  0
    7.9602    4.1636    0.0000 C   0  0  0  0  0  0  0  0  0  0  0  0
    8.7852    4.1636    0.0000 C   0  0  0  0  0  0  0  0  0  0  0  0
    9.1977    4.8781    0.0000 C   0  0  0  0  0  0  0  0  0  0  0  0
   10.0227    4.8781    0.0000 C   0  0  0  0  0  0  0  0  0  0  0  0
   10.4352    4.1636    0.0000 C   0  0  0  0  0  0  0  0  0  0  0  0
   10.0227    3.4492    0.0000 C   0  0  0  0  0  0  0  0  0  0  0  0
    9.1977    3.4492    0.0000 C   0  0  0  0  0  0  0  0  0  0  0  0
    7.5477    2.0202    0.0000 C   0  0  0  0  0  0  0  0  0  0  0  0
    6.7227    2.0202    0.0000 C   0  0  0  0  0  0  0  0  0  0  0  0
    6.3102    1.3057    0.0000 C   0  0  0  0  0  0  0  0  0  0  0  0
    6.6458    0.5520    0.0000 C   0  0  0  0  0  0  0  0  0  0  0  0
    7.4527    0.3805    0.0000 O   0  0  0  0  0  0  0  0  0  0  0  0
    6.0327    0.0000    0.0000 C   0  0  0  0  0  0  0  0  0  0  0  0
    5.3182    0.4125    0.0000 C   0  0  0  0  0  0  0  0  0  0  0  0
    4.5645    0.0770    0.0000 O   0  0  0  0  0  0  0  0  0  0  0  0
    5.4897    1.2195    0.0000 C   0  0  0  0  0  0  0  0  0  0  0  0
    4.9377    1.8326    0.0000 C   0  0  0  0  0  0  0  0  0  0  0  0
    4.1408    1.6191    0.0000 C   0  0  0  0  0  0  0  0  0  0  0  0
    3.5574    2.2024    0.0000 C   0  0  0  0  0  0  0  0  0  0  0  0
    2.7605    1.9889    0.0000 C   0  0  0  0  0  0  0  0  0  0  0  0
    2.1771    2.5722    0.0000 C   0  0  0  0  0  0  0  0  0  0  0  0
    1.3802    2.3587    0.0000 C   0  0  0  0  0  0  0  0  0  0  0  0
    0.7969    2.9421    0.0000 C   0  0  0  0  0  0  0  0  0  0  0  0
    0.0000    2.7286    0.0000 O   0  0  0  0  0  0  0  0  0  0  0  0
    1.0104    3.7390    0.0000 O   0  0  0  0  0  0  0  0  0  0  0  0
  1  2  1  0  0  0  0
  2  3  1  0  0  0  0
  3  4  1  0  0  0  0
  4  5  1  0  0  0  0
  5 10  2  0  0  0  0
  5  6  1  0  0  0  0
  6  7  2  0  0  0  0
  7  8  1  0  0  0  0
  8  9  2  0  0  0  0
  9 10  1  0  0  0  0
  2 11  1  0  0  0  0
 11 12  2  0  0  0  0
 12 13  1  0  0  0  0
 13 19  1  0  0  0  0
 13 14  1  0  0  0  0
 14 15  1  0  0  0  0
 14 16  1  0  0  0  0
 16 17  1  0  0  0  0
 17 18  2  0  0  0  0
 17 19  1  0  0  0  0
 19 20  1  0  0  0  0
 20 21  1  0  0  0  0
 21 22  2  0  0  0  0
 22 23  1  0  0  0  0
 23 24  1  0  0  0  0
 24 25  1  0  0  0  0
 25 26  1  0  0  0  0
 26 27  2  0  0  0  0
 26 28  1  0  0  0  0
M  END
>  <CdId>
44

>  <Mol Weight>
386.49

>  <Formula>
C23H30O5

>  <Name>
17-phenyl-trinor-prostaglandin E2

>  <Mol_ID>
244

>  <MolWeight>
386.49

>  <LogD>
0.51

$$$$
17A-ETHYNYLESTRADIOL-3-CYCLOPENTYL ETHER
  Mrv2113 02112212262D          

 27 31  0  0  0  0            999 V2000
    6.8394    2.0964    0.0000 C   0  0  0  0  0  0  0  0  0  0  0  0
    6.3545    1.4290    0.0000 C   0  0  0  0  0  0  0  0  0  0  0  0
    5.9420    2.1434    0.0000 C   0  0  0  0  0  0  0  0  0  0  0  0
    5.1170    2.1434    0.0000 C   0  0  0  0  0  0  0  0  0  0  0  0
    4.7045    1.4290    0.0000 C   0  0  0  0  0  0  0  0  0  0  0  0
    5.1170    0.7145    0.0000 C   0  0  0  0  0  0  0  0  0  0  0  0
    4.7045    0.0000    0.0000 C   0  0  0  0  0  0  0  0  0  0  0  0
    3.8795    0.0000    0.0000 C   0  0  0  0  0  0  0  0  0  0  0  0
    3.4670    0.7145    0.0000 C   0  0  0  0  0  0  0  0  0  0  0  0
    2.6420    0.7145    0.0000 C   0  0  0  0  0  0  0  0  0  0  0  0
    2.2295    1.4290    0.0000 C   0  0  0  0  0  0  0  0  0  0  0  0
    1.4045    1.4290    0.0000 O   0  0  0  0  0  0  0  0  0  0  0  0
    0.9920    2.1434    0.0000 C   0  0  0  0  0  0  0  0  0  0  0  0
    0.1715    2.2297    0.0000 C   0  0  0  0  0  0  0  0  0  0  0  0
    0.0000    3.0366    0.0000 C   0  0  0  0  0  0  0  0  0  0  0  0
    0.7145    3.4491    0.0000 C   0  0  0  0  0  0  0  0  0  0  0  0
    1.3275    2.8971    0.0000 C   0  0  0  0  0  0  0  0  0  0  0  0
    2.6420    2.1434    0.0000 C   0  0  0  0  0  0  0  0  0  0  0  0
    3.4670    2.1434    0.0000 C   0  0  0  0  0  0  0  0  0  0  0  0
    3.8795    1.4290    0.0000 C   0  0  0  0  0  0  0  0  0  0  0  0
    5.9420    0.7145    0.0000 C   0  0  0  0  0  0  0  0  0  0  0  0
    6.4940    0.1014    0.0000 C   0  0  0  0  0  0  0  0  0  0  0  0
    7.2477    0.4370    0.0000 C   0  0  0  0  0  0  0  0  0  0  0  0
    7.1615    1.2574    0.0000 C   0  0  0  0  0  0  0  0  0  0  0  0
    7.9833    1.1855    0.0000 O   0  0  0  0  0  0  0  0  0  0  0  0
    7.3889    2.0505    0.0000 C   0  0  0  0  0  0  0  0  0  0  0  0
    7.6163    2.8435    0.0000 C   0  0  0  0  0  0  0  0  0  0  0  0
  1  2  1  0  0  0  0
  2 24  1  0  0  0  0
  2 21  1  0  0  0  0
  2  3  1  0  0  0  0
  3  4  1  0  0  0  0
  4  5  1  0  0  0  0
  5 20  1  0  0  0  0
  5  6  1  0  0  0  0
  6  7  1  0  0  0  0
  7  8  1  0  0  0  0
  8  9  1  0  0  0  0
  9 20  2  0  0  0  0
  9 10  1  0  0  0  0
 10 11  2  0  0  0  0
 11 12  1  0  0  0  0
 12 13  1  0  0  0  0
 13 17  1  0  0  0  0
 13 14  1  0  0  0  0
 14 15  1  0  0  0  0
 15 16  1  0  0  0  0
 16 17  1  0  0  0  0
 11 18  1  0  0  0  0
 18 19  2  0  0  0  0
 19 20  1  0  0  0  0
  6 21  1  0  0  0  0
 21 22  1  0  0  0  0
 22 23  1  0  0  0  0
 23 24  1  0  0  0  0
 24 25  1  0  0  0  0
 24 26  1  0  0  0  0
 26 27  3  0  0  0  0
M  END
>  <CdId>
45

>  <Mol Weight>
364.53

>  <Formula>
C25H32O2

>  <Name>
17A-ETHYNYLESTRADIOL-3-CYCLOPENTYL ETHER

>  <Mol_ID>
245

>  <MolWeight>
364.53

>  <LogD>
5.40

$$$$
17alpha-Methyltestosterone 3-(O-carboxymethyl)oxime
  Mrv2113 02112212262D          

 27 30  0  0  0  0            999 V2000
    9.0538    1.1855    0.0000 C   0  0  0  0  0  0  0  0  0  0  0  0
    8.2320    1.2574    0.0000 C   0  0  0  0  0  0  0  0  0  0  0  0
    8.4594    2.0505    0.0000 O   0  0  0  0  0  0  0  0  0  0  0  0
    8.3182    0.4370    0.0000 C   0  0  0  0  0  0  0  0  0  0  0  0
    7.5645    0.1014    0.0000 C   0  0  0  0  0  0  0  0  0  0  0  0
    7.0125    0.7144    0.0000 C   0  0  0  0  0  0  0  0  0  0  0  0
    6.1875    0.7144    0.0000 C   0  0  0  0  0  0  0  0  0  0  0  0
    5.7750    0.0000    0.0000 C   0  0  0  0  0  0  0  0  0  0  0  0
    4.9500    0.0000    0.0000 C   0  0  0  0  0  0  0  0  0  0  0  0
    4.5375    0.7144    0.0000 C   0  0  0  0  0  0  0  0  0  0  0  0
    3.7125    0.7144    0.0000 C   0  0  0  0  0  0  0  0  0  0  0  0
    3.3000    1.4290    0.0000 C   0  0  0  0  0  0  0  0  0  0  0  0
    2.4750    1.4290    0.0000 N   0  0  0  0  0  0  0  0  0  0  0  0
    2.0625    2.1434    0.0000 O   0  0  0  0  0  0  0  0  0  0  0  0
    1.2375    2.1434    0.0000 C   0  0  0  0  0  0  0  0  0  0  0  0
    0.8250    2.8579    0.0000 C   0  0  0  0  0  0  0  0  0  0  0  0
    0.0000    2.8579    0.0000 O   0  0  0  0  0  0  0  0  0  0  0  0
    1.2375    3.5724    0.0000 O   0  0  0  0  0  0  0  0  0  0  0  0
    3.7125    2.1434    0.0000 C   0  0  0  0  0  0  0  0  0  0  0  0
    4.5375    2.1434    0.0000 C   0  0  0  0  0  0  0  0  0  0  0  0
    4.9500    1.4290    0.0000 C   0  0  0  0  0  0  0  0  0  0  0  0
    5.3625    2.1434    0.0000 C   0  0  0  0  0  0  0  0  0  0  0  0
    5.7750    1.4290    0.0000 C   0  0  0  0  0  0  0  0  0  0  0  0
    6.1875    2.1434    0.0000 C   0  0  0  0  0  0  0  0  0  0  0  0
    7.0125    2.1434    0.0000 C   0  0  0  0  0  0  0  0  0  0  0  0
    7.4250    1.4290    0.0000 C   0  0  0  0  0  0  0  0  0  0  0  0
    7.9099    2.0964    0.0000 C   0  0  0  0  0  0  0  0  0  0  0  0
  1  2  1  0  0  0  0
  2 26  1  0  0  0  0
  2  3  1  0  0  0  0
  2  4  1  0  0  0  0
  4  5  1  0  0  0  0
  5  6  1  0  0  0  0
  6 26  1  0  0  0  0
  6  7  1  0  0  0  0
  7 23  1  0  0  0  0
  7  8  1  0  0  0  0
  8  9  1  0  0  0  0
  9 10  1  0  0  0  0
 10 21  1  0  0  0  0
 10 11  2  0  0  0  0
 11 12  1  0  0  0  0
 12 13  2  0  0  0  0
 13 14  1  0  0  0  0
 14 15  1  0  0  0  0
 15 16  1  0  0  0  0
 16 17  2  0  0  0  0
 16 18  1  0  0  0  0
 12 19  1  0  0  0  0
 19 20  1  0  0  0  0
 20 21  1  0  0  0  0
 21 22  1  0  0  0  0
 21 23  1  0  0  0  0
 23 24  1  0  0  0  0
 24 25  1  0  0  0  0
 25 26  1  0  0  0  0
 26 27  1  0  0  0  0
M  END
>  <CdId>
46

>  <Mol Weight>
375.51

>  <Formula>
C22H33NO4

>  <Name>
17alpha-Methyltestosterone 3-(O-carboxymethyl)oxime

>  <Mol_ID>
246

>  <MolWeight>
375.51

>  <LogD>
0.28

$$$$
19(R)-hydroxyprostaglandin E2
  Mrv2113 02112212262D          

 26 26  0  0  0  0            999 V2000
    8.7852    5.5926    0.0000 C   0  0  0  0  0  0  0  0  0  0  0  0
    9.1977    4.8781    0.0000 C   0  0  0  0  0  0  0  0  0  0  0  0
   10.0227    4.8781    0.0000 O   0  0  0  0  0  0  0  0  0  0  0  0
    8.7852    4.1636    0.0000 C   0  0  0  0  0  0  0  0  0  0  0  0
    7.9602    4.1636    0.0000 C   0  0  0  0  0  0  0  0  0  0  0  0
    7.5477    3.4492    0.0000 C   0  0  0  0  0  0  0  0  0  0  0  0
    7.9602    2.7346    0.0000 C   0  0  0  0  0  0  0  0  0  0  0  0
    8.7852    2.7346    0.0000 O   0  0  0  0  0  0  0  0  0  0  0  0
    7.5477    2.0202    0.0000 C   0  0  0  0  0  0  0  0  0  0  0  0
    6.7227    2.0202    0.0000 C   0  0  0  0  0  0  0  0  0  0  0  0
    6.3102    1.3057    0.0000 C   0  0  0  0  0  0  0  0  0  0  0  0
    6.6458    0.5520    0.0000 C   0  0  0  0  0  0  0  0  0  0  0  0
    7.4527    0.3805    0.0000 O   0  0  0  0  0  0  0  0  0  0  0  0
    6.0327    0.0000    0.0000 C   0  0  0  0  0  0  0  0  0  0  0  0
    5.3181    0.4125    0.0000 C   0  0  0  0  0  0  0  0  0  0  0  0
    4.5645    0.0770    0.0000 O   0  0  0  0  0  0  0  0  0  0  0  0
    5.4897    1.2195    0.0000 C   0  0  0  0  0  0  0  0  0  0  0  0
    4.9376    1.8326    0.0000 C   0  0  0  0  0  0  0  0  0  0  0  0
    4.1407    1.6191    0.0000 C   0  0  0  0  0  0  0  0  0  0  0  0
    3.5574    2.2024    0.0000 C   0  0  0  0  0  0  0  0  0  0  0  0
    2.7605    1.9889    0.0000 C   0  0  0  0  0  0  0  0  0  0  0  0
    2.1771    2.5722    0.0000 C   0  0  0  0  0  0  0  0  0  0  0  0
    1.3802    2.3587    0.0000 C   0  0  0  0  0  0  0  0  0  0  0  0
    0.7969    2.9421    0.0000 C   0  0  0  0  0  0  0  0  0  0  0  0
    0.0000    2.7286    0.0000 O   0  0  0  0  0  0  0  0  0  0  0  0
    1.0104    3.7390    0.0000 O   0  0  0  0  0  0  0  0  0  0  0  0
  1  2  1  0  0  0  0
  2  3  1  0  0  0  0
  2  4  1  0  0  0  0
  4  5  1  0  0  0  0
  5  6  1  0  0  0  0
  6  7  1  0  0  0  0
  7  8  1  0  0  0  0
  7  9  1  0  0  0  0
  9 10  2  0  0  0  0
 10 11  1  0  0  0  0
 11 17  1  0  0  0  0
 11 12  1  0  0  0  0
 12 13  1  0  0  0  0
 12 14  1  0  0  0  0
 14 15  1  0  0  0  0
 15 16  2  0  0  0  0
 15 17  1  0  0  0  0
 17 18  1  0  0  0  0
 18 19  1  0  0  0  0
 19 20  2  0  0  0  0
 20 21  1  0  0  0  0
 21 22  1  0  0  0  0
 22 23  1  0  0  0  0
 23 24  1  0  0  0  0
 24 25  2  0  0  0  0
 24 26  1  0  0  0  0
M  END
>  <CdId>
47

>  <Mol Weight>
368.47

>  <Formula>
C20H32O6

>  <Name>
19(R)-hydroxyprostaglandin E2

>  <Mol_ID>
247

>  <MolWeight>
368.47

>  <LogD>
-1.20

$$$$
19(R)-hydroxyprostaglandin F2a
  Mrv2113 02112212262D          

 26 26  0  0  0  0            999 V2000
    8.7852    5.5926    0.0000 C   0  0  0  0  0  0  0  0  0  0  0  0
    9.1977    4.8781    0.0000 C   0  0  0  0  0  0  0  0  0  0  0  0
   10.0227    4.8781    0.0000 O   0  0  0  0  0  0  0  0  0  0  0  0
    8.7852    4.1636    0.0000 C   0  0  0  0  0  0  0  0  0  0  0  0
    7.9602    4.1636    0.0000 C   0  0  0  0  0  0  0  0  0  0  0  0
    7.5477    3.4492    0.0000 C   0  0  0  0  0  0  0  0  0  0  0  0
    7.9602    2.7346    0.0000 C   0  0  0  0  0  0  0  0  0  0  0  0
    8.7852    2.7346    0.0000 O   0  0  0  0  0  0  0  0  0  0  0  0
    7.5477    2.0202    0.0000 C   0  0  0  0  0  0  0  0  0  0  0  0
    6.7227    2.0202    0.0000 C   0  0  0  0  0  0  0  0  0  0  0  0
    6.3102    1.3057    0.0000 C   0  0  0  0  0  0  0  0  0  0  0  0
    6.6458    0.5520    0.0000 C   0  0  0  0  0  0  0  0  0  0  0  0
    7.4527    0.3805    0.0000 O   0  0  0  0  0  0  0  0  0  0  0  0
    6.0327    0.0000    0.0000 C   0  0  0  0  0  0  0  0  0  0  0  0
    5.3181    0.4125    0.0000 C   0  0  0  0  0  0  0  0  0  0  0  0
    4.5645    0.0770    0.0000 O   0  0  0  0  0  0  0  0  0  0  0  0
    5.4897    1.2195    0.0000 C   0  0  0  0  0  0  0  0  0  0  0  0
    4.9376    1.8326    0.0000 C   0  0  0  0  0  0  0  0  0  0  0  0
    4.1407    1.6191    0.0000 C   0  0  0  0  0  0  0  0  0  0  0  0
    3.5574    2.2024    0.0000 C   0  0  0  0  0  0  0  0  0  0  0  0
    2.7605    1.9889    0.0000 C   0  0  0  0  0  0  0  0  0  0  0  0
    2.1771    2.5722    0.0000 C   0  0  0  0  0  0  0  0  0  0  0  0
    1.3802    2.3587    0.0000 C   0  0  0  0  0  0  0  0  0  0  0  0
    0.7969    2.9421    0.0000 C   0  0  0  0  0  0  0  0  0  0  0  0
    0.0000    2.7286    0.0000 O   0  0  0  0  0  0  0  0  0  0  0  0
    1.0104    3.7390    0.0000 O   0  0  0  0  0  0  0  0  0  0  0  0
  1  2  1  0  0  0  0
  2  3  1  0  0  0  0
  2  4  1  0  0  0  0
  4  5  1  0  0  0  0
  5  6  1  0  0  0  0
  6  7  1  0  0  0  0
  7  8  1  0  0  0  0
  7  9  1  0  0  0  0
  9 10  2  0  0  0  0
 10 11  1  0  0  0  0
 11 17  1  0  0  0  0
 11 12  1  0  0  0  0
 12 13  1  0  0  0  0
 12 14  1  0  0  0  0
 14 15  1  0  0  0  0
 15 16  1  0  0  0  0
 15 17  1  0  0  0  0
 17 18  1  0  0  0  0
 18 19  1  0  0  0  0
 19 20  2  0  0  0  0
 20 21  1  0  0  0  0
 21 22  1  0  0  0  0
 22 23  1  0  0  0  0
 23 24  1  0  0  0  0
 24 25  2  0  0  0  0
 24 26  1  0  0  0  0
M  END
>  <CdId>
48

>  <Mol Weight>
370.49

>  <Formula>
C20H34O6

>  <Name>
19(R)-hydroxyprostaglandin F2a

>  <Mol_ID>
248

>  <MolWeight>
370.49

>  <LogD>
-1.78

$$$$
1[2-chloro-4-methoxy-phenyl-oxymethyl]-4-[2,6-dichloro-phenyl-oxymethyl]-benzene
  Mrv2113 02112212262D          

 27 29  0  0  0  0            999 V2000
   10.0026    0.4125    0.0000 C   0  0  0  0  0  0  0  0  0  0  0  0
    9.2881    0.0000    0.0000 O   0  0  0  0  0  0  0  0  0  0  0  0
    8.5736    0.4125    0.0000 C   0  0  0  0  0  0  0  0  0  0  0  0
    7.8592    0.0000    0.0000 C   0  0  0  0  0  0  0  0  0  0  0  0
    7.1447    0.4125    0.0000 C   0  0  0  0  0  0  0  0  0  0  0  0
    7.1447    1.2375    0.0000 C   0  0  0  0  0  0  0  0  0  0  0  0
    6.4302    1.6500    0.0000 O   0  0  0  0  0  0  0  0  0  0  0  0
    5.7158    1.2375    0.0000 C   0  0  0  0  0  0  0  0  0  0  0  0
    5.0013    1.6500    0.0000 C   0  0  0  0  0  0  0  0  0  0  0  0
    4.2868    1.2375    0.0000 C   0  0  0  0  0  0  0  0  0  0  0  0
    3.5724    1.6500    0.0000 C   0  0  0  0  0  0  0  0  0  0  0  0
    3.5724    2.4750    0.0000 C   0  0  0  0  0  0  0  0  0  0  0  0
    2.8579    2.8875    0.0000 C   0  0  0  0  0  0  0  0  0  0  0  0
    2.1434    2.4750    0.0000 O   0  0  0  0  0  0  0  0  0  0  0  0
    1.4290    2.8875    0.0000 C   0  0  0  0  0  0  0  0  0  0  0  0
    0.7145    2.4750    0.0000 C   0  0  0  0  0  0  0  0  0  0  0  0
    0.7145    1.6500    0.0000 Cl  0  0  0  0  0  0  0  0  0  0  0  0
    0.0000    2.8875    0.0000 C   0  0  0  0  0  0  0  0  0  0  0  0
    0.0000    3.7125    0.0000 C   0  0  0  0  0  0  0  0  0  0  0  0
    0.7145    4.1250    0.0000 C   0  0  0  0  0  0  0  0  0  0  0  0
    1.4290    3.7125    0.0000 C   0  0  0  0  0  0  0  0  0  0  0  0
    2.1434    4.1250    0.0000 Cl  0  0  0  0  0  0  0  0  0  0  0  0
    4.2868    2.8875    0.0000 C   0  0  0  0  0  0  0  0  0  0  0  0
    5.0013    2.4750    0.0000 C   0  0  0  0  0  0  0  0  0  0  0  0
    7.8592    1.6500    0.0000 C   0  0  0  0  0  0  0  0  0  0  0  0
    7.8592    2.4750    0.0000 Cl  0  0  0  0  0  0  0  0  0  0  0  0
    8.5736    1.2375    0.0000 C   0  0  0  0  0  0  0  0  0  0  0  0
  1  2  1  0  0  0  0
  2  3  1  0  0  0  0
  3 27  2  0  0  0  0
  3  4  1  0  0  0  0
  4  5  2  0  0  0  0
  5  6  1  0  0  0  0
  6  7  1  0  0  0  0
  7  8  1  0  0  0  0
  8  9  1  0  0  0  0
  9 24  2  0  0  0  0
  9 10  1  0  0  0  0
 10 11  2  0  0  0  0
 11 12  1  0  0  0  0
 12 13  1  0  0  0  0
 13 14  1  0  0  0  0
 14 15  1  0  0  0  0
 15 21  2  0  0  0  0
 15 16  1  0  0  0  0
 16 17  1  0  0  0  0
 16 18  2  0  0  0  0
 18 19  1  0  0  0  0
 19 20  2  0  0  0  0
 20 21  1  0  0  0  0
 21 22  1  0  0  0  0
 12 23  2  0  0  0  0
 23 24  1  0  0  0  0
  6 25  2  0  0  0  0
 25 26  1  0  0  0  0
 25 27  1  0  0  0  0
M  END
>  <CdId>
49

>  <Mol Weight>
423.71

>  <Formula>
C21H17Cl3O3

>  <Name>
1[2-chloro-4-methoxy-phenyl-oxymethyl]-4-[2,6-dichloro-phenyl-oxymethyl]-benzene

>  <Mol_ID>
249

>  <MolWeight>
423.72

>  <LogD>
6.76

$$$$
1h-[1,2,4]oxadiazolo[4,3-a]quinoxalin-1-one
  Mrv2113 02112212262D          

 14 16  0  0  0  0            999 V2000
    1.7629    3.0701    0.0000 O   0  0  0  0  0  0  0  0  0  0  0  0
    2.3149    2.4570    0.0000 C   0  0  0  0  0  0  0  0  0  0  0  0
    3.1354    2.5432    0.0000 O   0  0  0  0  0  0  0  0  0  0  0  0
    3.4710    1.7895    0.0000 N   0  0  0  0  0  0  0  0  0  0  0  0
    2.8579    1.2375    0.0000 C   0  0  0  0  0  0  0  0  0  0  0  0
    2.8579    0.4125    0.0000 C   0  0  0  0  0  0  0  0  0  0  0  0
    2.1434    0.0000    0.0000 N   0  0  0  0  0  0  0  0  0  0  0  0
    1.4290    0.4125    0.0000 C   0  0  0  0  0  0  0  0  0  0  0  0
    0.7144    0.0000    0.0000 C   0  0  0  0  0  0  0  0  0  0  0  0
    0.0000    0.4125    0.0000 C   0  0  0  0  0  0  0  0  0  0  0  0
    0.0000    1.2375    0.0000 C   0  0  0  0  0  0  0  0  0  0  0  0
    0.7144    1.6500    0.0000 C   0  0  0  0  0  0  0  0  0  0  0  0
    1.4290    1.2375    0.0000 C   0  0  0  0  0  0  0  0  0  0  0  0
    2.1434    1.6500    0.0000 N   0  0  0  0  0  0  0  0  0  0  0  0
  1  2  2  0  0  0  0
  2 14  1  0  0  0  0
  2  3  1  0  0  0  0
  3  4  1  0  0  0  0
  4  5  2  0  0  0  0
  5 14  1  0  0  0  0
  5  6  1  0  0  0  0
  6  7  2  0  0  0  0
  7  8  1  0  0  0  0
  8 13  2  0  0  0  0
  8  9  1  0  0  0  0
  9 10  2  0  0  0  0
 10 11  1  0  0  0  0
 11 12  2  0  0  0  0
 12 13  1  0  0  0  0
 13 14  1  0  0  0  0
M  END
>  <CdId>
50

>  <Mol Weight>
187.16

>  <Formula>
C9H5N3O2

>  <Name>
1h-[1,2,4]oxadiazolo[4,3-a]quinoxalin-1-one

>  <Mol_ID>
250

>  <MolWeight>
187.16

>  <LogD>
1.74

$$$$
1r,2s,3r,4s-tetrahydro-benzo[a]anthracene-2,3,4-triol
  Mrv2113 02112212262D          

 21 24  0  0  0  0            999 V2000
    5.3625    2.8579    0.0000 O   0  0  0  0  0  0  0  0  0  0  0  0
    4.9500    2.1434    0.0000 C   0  0  0  0  0  0  0  0  0  0  0  0
    4.1250    2.1434    0.0000 C   0  0  0  0  0  0  0  0  0  0  0  0
    3.7125    1.4290    0.0000 C   0  0  0  0  0  0  0  0  0  0  0  0
    4.1250    0.7145    0.0000 C   0  0  0  0  0  0  0  0  0  0  0  0
    3.7125    0.0000    0.0000 C   0  0  0  0  0  0  0  0  0  0  0  0
    2.8875    0.0000    0.0000 C   0  0  0  0  0  0  0  0  0  0  0  0
    2.4750    0.7145    0.0000 C   0  0  0  0  0  0  0  0  0  0  0  0
    1.6500    0.7145    0.0000 C   0  0  0  0  0  0  0  0  0  0  0  0
    1.2375    1.4290    0.0000 C   0  0  0  0  0  0  0  0  0  0  0  0
    0.4125    1.4290    0.0000 C   0  0  0  0  0  0  0  0  0  0  0  0
    0.0000    2.1434    0.0000 C   0  0  0  0  0  0  0  0  0  0  0  0
    0.4125    2.8579    0.0000 C   0  0  0  0  0  0  0  0  0  0  0  0
    1.2375    2.8579    0.0000 C   0  0  0  0  0  0  0  0  0  0  0  0
    1.6500    2.1434    0.0000 C   0  0  0  0  0  0  0  0  0  0  0  0
    2.4750    2.1434    0.0000 C   0  0  0  0  0  0  0  0  0  0  0  0
    2.8875    1.4290    0.0000 C   0  0  0  0  0  0  0  0  0  0  0  0
    4.9500    0.7145    0.0000 C   0  0  0  0  0  0  0  0  0  0  0  0
    5.3625    0.0000    0.0000 O   0  0  0  0  0  0  0  0  0  0  0  0
    5.3625    1.4290    0.0000 C   0  0  0  0  0  0  0  0  0  0  0  0
    6.1875    1.4290    0.0000 O   0  0  0  0  0  0  0  0  0  0  0  0
  1  2  1  0  0  0  0
  2 20  1  0  0  0  0
  2  3  1  0  0  0  0
  3  4  1  0  0  0  0
  4 17  2  0  0  0  0
  4  5  1  0  0  0  0
  5  6  2  0  0  0  0
  6  7  1  0  0  0  0
  7  8  2  0  0  0  0
  8 17  1  0  0  0  0
  8  9  1  0  0  0  0
  9 10  2  0  0  0  0
 10 15  1  0  0  0  0
 10 11  1  0  0  0  0
 11 12  2  0  0  0  0
 12 13  1  0  0  0  0
 13 14  2  0  0  0  0
 14 15  1  0  0  0  0
 15 16  2  0  0  0  0
 16 17  1  0  0  0  0
  5 18  1  0  0  0  0
 18 19  1  0  0  0  0
 18 20  1  0  0  0  0
 20 21  1  0  0  0  0
M  END
>  <CdId>
51

>  <Mol Weight>
280.32

>  <Formula>
C18H16O3

>  <Name>
1r,2s,3r,4s-tetrahydro-benzo[a]anthracene-2,3,4-triol

>  <Mol_ID>
251

>  <MolWeight>
280.32

>  <LogD>
2.02

$$$$
2' O-Methyladenosine
  Mrv2113 02112212262D          

 23 25  0  0  0  0            999 V2000
    3.4171    0.0000    0.0000 C   0  0  0  0  0  0  0  0  0  0  0  0
    3.2456    0.8070    0.0000 O   0  0  0  0  0  0  0  0  0  0  0  0
    2.4487    1.0205    0.0000 C   0  0  0  0  0  0  0  0  0  0  0  0
    2.3196    0.2057    0.0000 C   0  0  0  0  0  0  0  0  0  0  0  0
    1.6249    1.0636    0.0000 C   0  0  0  0  0  0  0  0  0  0  0  0
    1.6680    0.2398    0.0000 C   0  0  0  0  0  0  0  0  0  0  0  0
    0.8100    0.9346    0.0000 O   0  0  0  0  0  0  0  0  0  0  0  0
    1.4113    1.8605    0.0000 C   0  0  0  0  0  0  0  0  0  0  0  0
    0.6411    2.1562    0.0000 C   0  0  0  0  0  0  0  0  0  0  0  0
    0.0000    1.6370    0.0000 O   0  0  0  0  0  0  0  0  0  0  0  0
    2.1033    2.3099    0.0000 O   0  0  0  0  0  0  0  0  0  0  0  0
    2.7444    1.7907    0.0000 C   0  0  0  0  0  0  0  0  0  0  0  0
    3.1937    2.4826    0.0000 C   0  0  0  0  0  0  0  0  0  0  0  0
    3.7000    1.3038    0.0000 N   0  0  0  0  0  0  0  0  0  0  0  0
    3.8290    0.4889    0.0000 C   0  0  0  0  0  0  0  0  0  0  0  0
    4.6439    0.3599    0.0000 N   0  0  0  0  0  0  0  0  0  0  0  0
    5.0184    1.0949    0.0000 C   0  0  0  0  0  0  0  0  0  0  0  0
    5.8152    1.3085    0.0000 C   0  0  0  0  0  0  0  0  0  0  0  0
    6.3986    0.7251    0.0000 N   0  0  0  0  0  0  0  0  0  0  0  0
    6.0288    2.1054    0.0000 N   0  0  0  0  0  0  0  0  0  0  0  0
    5.4454    2.6887    0.0000 C   0  0  0  0  0  0  0  0  0  0  0  0
    4.6485    2.4752    0.0000 N   0  0  0  0  0  0  0  0  0  0  0  0
    4.4350    1.6783    0.0000 C   0  0  0  0  0  0  0  0  0  0  0  0
  1  2  1  0  0  0  0
  2  3  1  0  0  0  0
  3 12  1  0  0  0  0
  3  4  1  0  0  0  0
  3  5  1  0  0  0  0
  5  6  1  0  0  0  0
  5  7  1  0  0  0  0
  5  8  1  0  0  0  0
  8  9  1  0  0  0  0
  9 10  1  0  0  0  0
  8 11  1  0  0  0  0
 11 12  1  0  0  0  0
 12 13  1  0  0  0  0
 12 14  1  0  0  0  0
 14 23  1  0  0  0  0
 14 15  1  0  0  0  0
 15 16  2  0  0  0  0
 16 17  1  0  0  0  0
 17 23  2  0  0  0  0
 17 18  1  0  0  0  0
 18 19  1  0  0  0  0
 18 20  2  0  0  0  0
 20 21  1  0  0  0  0
 21 22  2  0  0  0  0
 22 23  1  0  0  0  0
M  END
>  <CdId>
52

>  <Mol Weight>
323.35

>  <Formula>
C14H21N5O4

>  <Name>
2' O-Methyladenosine

>  <Mol_ID>
252

>  <MolWeight>
323.35

>  <LogD>
-0.64

$$$$
2',3'-dideoxy-3'-fluoro-urididine-5'-diphosphate
  Mrv2113 02112212262D          

 24 25  0  0  0  0            999 V2000
    8.7841    1.1624    0.0000 O   0  0  0  0  0  0  0  0  0  0  0  0
    7.9636    1.2487    0.0000 P   0  0  0  0  0  0  0  0  0  0  0  0
    7.8774    0.4282    0.0000 O   0  0  0  0  0  0  0  0  0  0  0  0
    8.0499    2.0691    0.0000 O   0  0  0  0  0  0  0  0  0  0  0  0
    7.1431    1.3349    0.0000 O   0  0  0  0  0  0  0  0  0  0  0  0
    6.6582    0.6674    0.0000 P   0  0  0  0  0  0  0  0  0  0  0  0
    7.3256    0.1825    0.0000 O   0  0  0  0  0  0  0  0  0  0  0  0
    6.1733    0.0000    0.0000 O   0  0  0  0  0  0  0  0  0  0  0  0
    5.9908    1.1524    0.0000 O   0  0  0  0  0  0  0  0  0  0  0  0
    5.2371    0.8168    0.0000 C   0  0  0  0  0  0  0  0  0  0  0  0
    4.5696    1.3017    0.0000 C   0  0  0  0  0  0  0  0  0  0  0  0
    3.7850    1.0468    0.0000 O   0  0  0  0  0  0  0  0  0  0  0  0
    3.3000    1.7143    0.0000 C   0  0  0  0  0  0  0  0  0  0  0  0
    3.7850    2.3817    0.0000 C   0  0  0  0  0  0  0  0  0  0  0  0
    4.5696    2.1268    0.0000 C   0  0  0  0  0  0  0  0  0  0  0  0
    5.2371    2.6117    0.0000 F   0  0  0  0  0  0  0  0  0  0  0  0
    2.4750    1.7143    0.0000 N   0  0  0  0  0  0  0  0  0  0  0  0
    2.0625    0.9998    0.0000 C   0  0  0  0  0  0  0  0  0  0  0  0
    1.2375    0.9998    0.0000 C   0  0  0  0  0  0  0  0  0  0  0  0
    0.8250    1.7143    0.0000 C   0  0  0  0  0  0  0  0  0  0  0  0
    0.0000    1.7143    0.0000 O   0  0  0  0  0  0  0  0  0  0  0  0
    1.2375    2.4287    0.0000 N   0  0  0  0  0  0  0  0  0  0  0  0
    2.0625    2.4287    0.0000 C   0  0  0  0  0  0  0  0  0  0  0  0
    2.4750    3.1432    0.0000 O   0  0  0  0  0  0  0  0  0  0  0  0
  1  2  1  0  0  0  0
  2  3  2  0  0  0  0
  2  4  1  0  0  0  0
  2  5  1  0  0  0  0
  5  6  1  0  0  0  0
  6  7  2  0  0  0  0
  6  8  1  0  0  0  0
  6  9  1  0  0  0  0
  9 10  1  0  0  0  0
 10 11  1  0  0  0  0
 11 15  1  0  0  0  0
 11 12  1  0  0  0  0
 12 13  1  0  0  0  0
 13 14  1  0  0  0  0
 14 15  1  0  0  0  0
 15 16  1  0  0  0  0
 13 17  1  0  0  0  0
 17 23  1  0  0  0  0
 17 18  1  0  0  0  0
 18 19  2  0  0  0  0
 19 20  1  0  0  0  0
 20 21  2  0  0  0  0
 20 22  1  0  0  0  0
 22 23  1  0  0  0  0
 23 24  2  0  0  0  0
M  END
>  <CdId>
53

>  <Mol Weight>
390.15

>  <Formula>
C9H13FN2O10P2

>  <Name>
2',3'-dideoxy-3'-fluoro-urididine-5'-diphosphate

>  <Mol_ID>
253

>  <MolWeight>
390.16

>  <LogD>
-6.20

$$$$
2',3'-dideoxyadenosine-5'-triphosphate
  Mrv2113 02112212262D          

 29 31  0  0  0  0            999 V2000
    0.0000    1.7452    0.0000 N   0  0  0  0  0  0  0  0  0  0  0  0
    0.7537    2.0807    0.0000 C   0  0  0  0  0  0  0  0  0  0  0  0
    0.8399    2.9013    0.0000 N   0  0  0  0  0  0  0  0  0  0  0  0
    1.5936    3.2368    0.0000 C   0  0  0  0  0  0  0  0  0  0  0  0
    2.2611    2.7519    0.0000 N   0  0  0  0  0  0  0  0  0  0  0  0
    2.1748    1.9314    0.0000 C   0  0  0  0  0  0  0  0  0  0  0  0
    2.7268    1.3183    0.0000 N   0  0  0  0  0  0  0  0  0  0  0  0
    2.3143    0.6038    0.0000 C   0  0  0  0  0  0  0  0  0  0  0  0
    1.5074    0.7753    0.0000 N   0  0  0  0  0  0  0  0  0  0  0  0
    1.4211    1.5958    0.0000 C   0  0  0  0  0  0  0  0  0  0  0  0
    3.5474    1.4045    0.0000 C   0  0  0  0  0  0  0  0  0  0  0  0
    3.9599    2.1190    0.0000 C   0  0  0  0  0  0  0  0  0  0  0  0
    4.7669    1.9475    0.0000 C   0  0  0  0  0  0  0  0  0  0  0  0
    4.8531    1.1270    0.0000 C   0  0  0  0  0  0  0  0  0  0  0  0
    5.5675    0.7145    0.0000 C   0  0  0  0  0  0  0  0  0  0  0  0
    6.2820    1.1270    0.0000 O   0  0  0  0  0  0  0  0  0  0  0  0
    6.9965    0.7145    0.0000 P   0  0  0  0  0  0  0  0  0  0  0  0
    6.5840    0.0000    0.0000 O   0  0  0  0  0  0  0  0  0  0  0  0
    7.7110    0.3020    0.0000 O   0  0  0  0  0  0  0  0  0  0  0  0
    7.4090    1.4290    0.0000 O   0  0  0  0  0  0  0  0  0  0  0  0
    8.2340    1.4290    0.0000 P   0  0  0  0  0  0  0  0  0  0  0  0
    8.2340    0.6040    0.0000 O   0  0  0  0  0  0  0  0  0  0  0  0
    9.0590    1.4290    0.0000 O   0  0  0  0  0  0  0  0  0  0  0  0
    8.2340    2.2540    0.0000 O   0  0  0  0  0  0  0  0  0  0  0  0
    8.9485    2.6665    0.0000 P   0  0  0  0  0  0  0  0  0  0  0  0
    9.3610    1.9520    0.0000 O   0  0  0  0  0  0  0  0  0  0  0  0
    8.5360    3.3810    0.0000 O   0  0  0  0  0  0  0  0  0  0  0  0
    9.6630    3.0790    0.0000 O   0  0  0  0  0  0  0  0  0  0  0  0
    4.0994    0.7914    0.0000 O   0  0  0  0  0  0  0  0  0  0  0  0
  1  2  1  0  0  0  0
  2 10  2  0  0  0  0
  2  3  1  0  0  0  0
  3  4  2  0  0  0  0
  4  5  1  0  0  0  0
  5  6  2  0  0  0  0
  6 10  1  0  0  0  0
  6  7  1  0  0  0  0
  7  8  1  0  0  0  0
  8  9  2  0  0  0  0
  9 10  1  0  0  0  0
  7 11  1  0  0  0  0
 11 29  1  0  0  0  0
 11 12  1  0  0  0  0
 12 13  1  0  0  0  0
 13 14  1  0  0  0  0
 14 15  1  0  0  0  0
 15 16  1  0  0  0  0
 16 17  1  0  0  0  0
 17 18  2  0  0  0  0
 17 19  1  0  0  0  0
 17 20  1  0  0  0  0
 20 21  1  0  0  0  0
 21 22  2  0  0  0  0
 21 23  1  0  0  0  0
 21 24  1  0  0  0  0
 24 25  1  0  0  0  0
 25 26  2  0  0  0  0
 25 27  1  0  0  0  0
 25 28  1  0  0  0  0
 14 29  1  0  0  0  0
M  END
>  <CdId>
54

>  <Mol Weight>
475.18

>  <Formula>
C10H16N5O11P3

>  <Name>
2',3'-dideoxyadenosine-5'-triphosphate

>  <Mol_ID>
254

>  <MolWeight>
475.18

>  <LogD>
-8.86

$$$$
2',3'-DIDEOXYCYTIDINE 5'-TRIPHOSPHATE LITHIUM
  Mrv2113 02112212262D          

 27 28  0  0  0  0            999 V2000
    0.0000    1.7143    0.0000 N   0  0  0  0  0  0  0  0  0  0  0  0
    0.8250    1.7143    0.0000 C   0  0  0  0  0  0  0  0  0  0  0  0
    1.2375    2.4287    0.0000 C   0  0  0  0  0  0  0  0  0  0  0  0
    2.0625    2.4287    0.0000 C   0  0  0  0  0  0  0  0  0  0  0  0
    2.4750    1.7143    0.0000 N   0  0  0  0  0  0  0  0  0  0  0  0
    3.3000    1.7143    0.0000 C   0  0  0  0  0  0  0  0  0  0  0  0
    3.7850    2.3817    0.0000 C   0  0  0  0  0  0  0  0  0  0  0  0
    4.5696    2.1268    0.0000 C   0  0  0  0  0  0  0  0  0  0  0  0
    4.5696    1.3017    0.0000 C   0  0  0  0  0  0  0  0  0  0  0  0
    5.2371    0.8168    0.0000 C   0  0  0  0  0  0  0  0  0  0  0  0
    5.9908    1.1524    0.0000 O   0  0  0  0  0  0  0  0  0  0  0  0
    6.6582    0.6674    0.0000 P   0  0  0  0  0  0  0  0  0  0  0  0
    7.3256    0.1825    0.0000 O   0  0  0  0  0  0  0  0  0  0  0  0
    6.1733    0.0000    0.0000 O   0  0  0  0  0  0  0  0  0  0  0  0
    7.1431    1.3349    0.0000 O   0  0  0  0  0  0  0  0  0  0  0  0
    7.9636    1.2487    0.0000 P   0  0  0  0  0  0  0  0  0  0  0  0
    8.7841    1.1624    0.0000 O   0  0  0  0  0  0  0  0  0  0  0  0
    7.8774    0.4282    0.0000 O   0  0  0  0  0  0  0  0  0  0  0  0
    8.0499    2.0691    0.0000 O   0  0  0  0  0  0  0  0  0  0  0  0
    8.8035    2.4047    0.0000 P   0  0  0  0  0  0  0  0  0  0  0  0
    9.1391    1.6510    0.0000 O   0  0  0  0  0  0  0  0  0  0  0  0
    8.4680    3.1584    0.0000 O   0  0  0  0  0  0  0  0  0  0  0  0
    9.5572    2.7403    0.0000 O   0  0  0  0  0  0  0  0  0  0  0  0
    3.7850    1.0468    0.0000 O   0  0  0  0  0  0  0  0  0  0  0  0
    2.0625    0.9998    0.0000 C   0  0  0  0  0  0  0  0  0  0  0  0
    2.4750    0.2853    0.0000 O   0  0  0  0  0  0  0  0  0  0  0  0
    1.2375    0.9998    0.0000 N   0  0  0  0  0  0  0  0  0  0  0  0
  1  2  1  0  0  0  0
  2 27  2  0  0  0  0
  2  3  1  0  0  0  0
  3  4  2  0  0  0  0
  4  5  1  0  0  0  0
  5  6  1  0  0  0  0
  6 24  1  0  0  0  0
  6  7  1  0  0  0  0
  7  8  1  0  0  0  0
  8  9  1  0  0  0  0
  9 10  1  0  0  0  0
 10 11  1  0  0  0  0
 11 12  1  0  0  0  0
 12 13  2  0  0  0  0
 12 14  1  0  0  0  0
 12 15  1  0  0  0  0
 15 16  1  0  0  0  0
 16 17  2  0  0  0  0
 16 18  1  0  0  0  0
 16 19  1  0  0  0  0
 19 20  1  0  0  0  0
 20 21  2  0  0  0  0
 20 22  1  0  0  0  0
 20 23  1  0  0  0  0
  9 24  1  0  0  0  0
  5 25  1  0  0  0  0
 25 26  2  0  0  0  0
 25 27  1  0  0  0  0
M  END
>  <CdId>
55

>  <Mol Weight>
451.16

>  <Formula>
C9H16N3O12P3

>  <Name>
2',3'-DIDEOXYCYTIDINE 5'-TRIPHOSPHATE LITHIUM

>  <Mol_ID>
255

>  <MolWeight>
451.16

>  <LogD>
-9.43

$$$$
2',3'-Dideoxyguanosine 5'-triphosphate
  Mrv2113 02112212262D          

 30 32  0  0  0  0            999 V2000
    8.4104    3.3682    0.0000 N   0  0  0  0  0  0  0  0  0  0  0  0
    8.4104    2.5432    0.0000 C   0  0  0  0  0  0  0  0  0  0  0  0
    9.1249    2.1307    0.0000 N   0  0  0  0  0  0  0  0  0  0  0  0
    9.1249    1.3057    0.0000 C   0  0  0  0  0  0  0  0  0  0  0  0
    9.8394    0.8932    0.0000 O   0  0  0  0  0  0  0  0  0  0  0  0
    8.4104    0.8932    0.0000 C   0  0  0  0  0  0  0  0  0  0  0  0
    8.2389    0.0862    0.0000 N   0  0  0  0  0  0  0  0  0  0  0  0
    7.4184    0.0000    0.0000 C   0  0  0  0  0  0  0  0  0  0  0  0
    7.0829    0.7537    0.0000 N   0  0  0  0  0  0  0  0  0  0  0  0
    6.2759    0.9252    0.0000 C   0  0  0  0  0  0  0  0  0  0  0  0
    5.6628    0.3732    0.0000 C   0  0  0  0  0  0  0  0  0  0  0  0
    4.9483    0.7857    0.0000 C   0  0  0  0  0  0  0  0  0  0  0  0
    5.1198    1.5927    0.0000 C   0  0  0  0  0  0  0  0  0  0  0  0
    4.5678    2.2058    0.0000 C   0  0  0  0  0  0  0  0  0  0  0  0
    3.7709    1.9922    0.0000 O   0  0  0  0  0  0  0  0  0  0  0  0
    3.1876    2.5756    0.0000 P   0  0  0  0  0  0  0  0  0  0  0  0
    3.7709    3.1589    0.0000 O   0  0  0  0  0  0  0  0  0  0  0  0
    2.6042    3.1589    0.0000 O   0  0  0  0  0  0  0  0  0  0  0  0
    2.6042    1.9922    0.0000 O   0  0  0  0  0  0  0  0  0  0  0  0
    1.8073    2.2058    0.0000 P   0  0  0  0  0  0  0  0  0  0  0  0
    2.0208    3.0026    0.0000 O   0  0  0  0  0  0  0  0  0  0  0  0
    1.0104    2.4193    0.0000 O   0  0  0  0  0  0  0  0  0  0  0  0
    1.5938    1.4089    0.0000 O   0  0  0  0  0  0  0  0  0  0  0  0
    0.7969    1.1953    0.0000 P   0  0  0  0  0  0  0  0  0  0  0  0
    1.0104    0.3984    0.0000 O   0  0  0  0  0  0  0  0  0  0  0  0
    0.0000    0.9818    0.0000 O   0  0  0  0  0  0  0  0  0  0  0  0
    0.5833    1.9922    0.0000 O   0  0  0  0  0  0  0  0  0  0  0  0
    5.9403    1.6789    0.0000 O   0  0  0  0  0  0  0  0  0  0  0  0
    7.6960    1.3057    0.0000 C   0  0  0  0  0  0  0  0  0  0  0  0
    7.6960    2.1307    0.0000 N   0  0  0  0  0  0  0  0  0  0  0  0
  1  2  1  0  0  0  0
  2 30  1  0  0  0  0
  2  3  2  0  0  0  0
  3  4  1  0  0  0  0
  4  5  2  0  0  0  0
  4  6  1  0  0  0  0
  6 29  2  0  0  0  0
  6  7  1  0  0  0  0
  7  8  2  0  0  0  0
  8  9  1  0  0  0  0
  9 10  1  0  0  0  0
 10 28  1  0  0  0  0
 10 11  1  0  0  0  0
 11 12  1  0  0  0  0
 12 13  1  0  0  0  0
 13 14  1  0  0  0  0
 14 15  1  0  0  0  0
 15 16  1  0  0  0  0
 16 17  2  0  0  0  0
 16 18  1  0  0  0  0
 16 19  1  0  0  0  0
 19 20  1  0  0  0  0
 20 21  2  0  0  0  0
 20 22  1  0  0  0  0
 20 23  1  0  0  0  0
 23 24  1  0  0  0  0
 24 25  2  0  0  0  0
 24 26  1  0  0  0  0
 24 27  1  0  0  0  0
 13 28  1  0  0  0  0
  9 29  1  0  0  0  0
 29 30  1  0  0  0  0
M  END
>  <CdId>
56

>  <Mol Weight>
491.18

>  <Formula>
C10H16N5O12P3

>  <Name>
2',3'-Dideoxyguanosine 5'-triphosphate

>  <Mol_ID>
256

>  <MolWeight>
491.18

>  <LogD>
-8.96

$$$$
2',5'-dideoxy-adenosine 3'-monophosphate
  Mrv2113 02112212262D          

 21 23  0  0  0  0            999 V2000
    5.6447    0.4501    0.0000 C   0  0  0  0  0  0  0  0  0  0  0  0
    4.8911    0.7857    0.0000 C   0  0  0  0  0  0  0  0  0  0  0  0
    4.1766    0.3732    0.0000 O   0  0  0  0  0  0  0  0  0  0  0  0
    3.5635    0.9252    0.0000 C   0  0  0  0  0  0  0  0  0  0  0  0
    3.8990    1.6789    0.0000 C   0  0  0  0  0  0  0  0  0  0  0  0
    4.7195    1.5927    0.0000 C   0  0  0  0  0  0  0  0  0  0  0  0
    5.2716    2.2058    0.0000 O   0  0  0  0  0  0  0  0  0  0  0  0
    6.0685    1.9922    0.0000 P   0  0  0  0  0  0  0  0  0  0  0  0
    5.8549    1.1953    0.0000 O   0  0  0  0  0  0  0  0  0  0  0  0
    6.2820    2.7891    0.0000 O   0  0  0  0  0  0  0  0  0  0  0  0
    6.8654    1.7787    0.0000 O   0  0  0  0  0  0  0  0  0  0  0  0
    2.7565    0.7537    0.0000 N   0  0  0  0  0  0  0  0  0  0  0  0
    2.4210    0.0000    0.0000 C   0  0  0  0  0  0  0  0  0  0  0  0
    1.6004    0.0862    0.0000 N   0  0  0  0  0  0  0  0  0  0  0  0
    1.4290    0.8932    0.0000 C   0  0  0  0  0  0  0  0  0  0  0  0
    0.7144    1.3057    0.0000 C   0  0  0  0  0  0  0  0  0  0  0  0
    0.0000    0.8932    0.0000 N   0  0  0  0  0  0  0  0  0  0  0  0
    0.7144    2.1307    0.0000 N   0  0  0  0  0  0  0  0  0  0  0  0
    1.4290    2.5432    0.0000 C   0  0  0  0  0  0  0  0  0  0  0  0
    2.1434    2.1307    0.0000 N   0  0  0  0  0  0  0  0  0  0  0  0
    2.1434    1.3057    0.0000 C   0  0  0  0  0  0  0  0  0  0  0  0
  1  2  1  0  0  0  0
  2  6  1  0  0  0  0
  2  3  1  0  0  0  0
  3  4  1  0  0  0  0
  4  5  1  0  0  0  0
  5  6  1  0  0  0  0
  6  7  1  0  0  0  0
  7  8  1  0  0  0  0
  8  9  2  0  0  0  0
  8 10  1  0  0  0  0
  8 11  1  0  0  0  0
  4 12  1  0  0  0  0
 12 21  1  0  0  0  0
 12 13  1  0  0  0  0
 13 14  2  0  0  0  0
 14 15  1  0  0  0  0
 15 21  2  0  0  0  0
 15 16  1  0  0  0  0
 16 17  1  0  0  0  0
 16 18  2  0  0  0  0
 18 19  1  0  0  0  0
 19 20  2  0  0  0  0
 20 21  1  0  0  0  0
M  END
>  <CdId>
57

>  <Mol Weight>
315.23

>  <Formula>
C10H14N5O5P

>  <Name>
2',5'-dideoxy-adenosine 3'-monophosphate

>  <Mol_ID>
257

>  <MolWeight>
315.22

>  <LogD>
-3.85

$$$$
2'-(4-ethoxyphenyl)-5-(4-methyl-1-piperazinyl)-2,5'-bi-benzimidazole
  Mrv2113 02112212262D          

 34 39  0  0  0  0            999 V2000
   13.2114    3.4670    0.0000 C   0  0  0  0  0  0  0  0  0  0  0  0
   12.4969    3.0545    0.0000 C   0  0  0  0  0  0  0  0  0  0  0  0
   11.7825    3.4670    0.0000 O   0  0  0  0  0  0  0  0  0  0  0  0
   11.0680    3.0545    0.0000 C   0  0  0  0  0  0  0  0  0  0  0  0
   11.0680    2.2295    0.0000 C   0  0  0  0  0  0  0  0  0  0  0  0
   10.3535    1.8170    0.0000 C   0  0  0  0  0  0  0  0  0  0  0  0
    9.6391    2.2295    0.0000 C   0  0  0  0  0  0  0  0  0  0  0  0
    9.6391    3.0545    0.0000 C   0  0  0  0  0  0  0  0  0  0  0  0
   10.3535    3.4670    0.0000 C   0  0  0  0  0  0  0  0  0  0  0  0
    8.9246    1.8170    0.0000 C   0  0  0  0  0  0  0  0  0  0  0  0
    8.8383    0.9965    0.0000 N   0  0  0  0  0  0  0  0  0  0  0  0
    8.0314    0.8250    0.0000 C   0  0  0  0  0  0  0  0  0  0  0  0
    7.6189    0.1106    0.0000 C   0  0  0  0  0  0  0  0  0  0  0  0
    6.7939    0.1106    0.0000 C   0  0  0  0  0  0  0  0  0  0  0  0
    6.3814    0.8250    0.0000 C   0  0  0  0  0  0  0  0  0  0  0  0
    6.7939    1.5395    0.0000 C   0  0  0  0  0  0  0  0  0  0  0  0
    7.6189    1.5395    0.0000 C   0  0  0  0  0  0  0  0  0  0  0  0
    8.1709    2.1525    0.0000 N   0  0  0  0  0  0  0  0  0  0  0  0
    5.5564    0.8250    0.0000 C   0  0  0  0  0  0  0  0  0  0  0  0
    5.0715    0.1576    0.0000 N   0  0  0  0  0  0  0  0  0  0  0  0
    4.2868    0.4125    0.0000 C   0  0  0  0  0  0  0  0  0  0  0  0
    3.5724    0.0000    0.0000 C   0  0  0  0  0  0  0  0  0  0  0  0
    2.8579    0.4125    0.0000 C   0  0  0  0  0  0  0  0  0  0  0  0
    2.8579    1.2375    0.0000 C   0  0  0  0  0  0  0  0  0  0  0  0
    3.5724    1.6500    0.0000 C   0  0  0  0  0  0  0  0  0  0  0  0
    4.2868    1.2375    0.0000 C   0  0  0  0  0  0  0  0  0  0  0  0
    5.0715    1.4924    0.0000 N   0  0  0  0  0  0  0  0  0  0  0  0
    2.1434    1.6500    0.0000 N   0  0  0  0  0  0  0  0  0  0  0  0
    1.4290    1.2375    0.0000 C   0  0  0  0  0  0  0  0  0  0  0  0
    0.7144    1.6500    0.0000 C   0  0  0  0  0  0  0  0  0  0  0  0
    0.7144    2.4750    0.0000 N   0  0  0  0  0  0  0  0  0  0  0  0
    0.0000    2.8875    0.0000 C   0  0  0  0  0  0  0  0  0  0  0  0
    1.4290    2.8875    0.0000 C   0  0  0  0  0  0  0  0  0  0  0  0
    2.1434    2.4750    0.0000 C   0  0  0  0  0  0  0  0  0  0  0  0
  1  2  1  0  0  0  0
  2  3  1  0  0  0  0
  3  4  1  0  0  0  0
  4  9  2  0  0  0  0
  4  5  1  0  0  0  0
  5  6  2  0  0  0  0
  6  7  1  0  0  0  0
  7  8  2  0  0  0  0
  8  9  1  0  0  0  0
  7 10  1  0  0  0  0
 10 18  1  0  0  0  0
 10 11  2  0  0  0  0
 11 12  1  0  0  0  0
 12 17  2  0  0  0  0
 12 13  1  0  0  0  0
 13 14  2  0  0  0  0
 14 15  1  0  0  0  0
 15 16  2  0  0  0  0
 16 17  1  0  0  0  0
 17 18  1  0  0  0  0
 15 19  1  0  0  0  0
 19 27  1  0  0  0  0
 19 20  2  0  0  0  0
 20 21  1  0  0  0  0
 21 26  2  0  0  0  0
 21 22  1  0  0  0  0
 22 23  2  0  0  0  0
 23 24  1  0  0  0  0
 24 25  2  0  0  0  0
 25 26  1  0  0  0  0
 26 27  1  0  0  0  0
 24 28  1  0  0  0  0
 34 28  1  0  0  0  0
 28 29  1  0  0  0  0
 29 30  1  0  0  0  0
 31 30  1  0  0  0  0
 31 32  1  0  0  0  0
 31 33  1  0  0  0  0
 33 34  1  0  0  0  0
M  END
>  <CdId>
58

>  <Mol Weight>
452.56

>  <Formula>
C27H28N6O

>  <Name>
2'-(4-ethoxyphenyl)-5-(4-methyl-1-piperazinyl)-2,5'-bi-benzimidazole

>  <Mol_ID>
258

>  <MolWeight>
452.56

>  <LogD>
4.14

$$$$
2'-5'dideoxyuridine
  Mrv2113 02112212262D          

 15 16  0  0  0  0            999 V2000
    5.2370    0.0000    0.0000 C   0  0  0  0  0  0  0  0  0  0  0  0
    4.5696    0.4849    0.0000 C   0  0  0  0  0  0  0  0  0  0  0  0
    3.7849    0.2300    0.0000 O   0  0  0  0  0  0  0  0  0  0  0  0
    3.3000    0.8974    0.0000 C   0  0  0  0  0  0  0  0  0  0  0  0
    3.7849    1.5649    0.0000 C   0  0  0  0  0  0  0  0  0  0  0  0
    4.5696    1.3099    0.0000 C   0  0  0  0  0  0  0  0  0  0  0  0
    5.2370    1.7949    0.0000 O   0  0  0  0  0  0  0  0  0  0  0  0
    2.4750    0.8974    0.0000 N   0  0  0  0  0  0  0  0  0  0  0  0
    2.0625    0.1830    0.0000 C   0  0  0  0  0  0  0  0  0  0  0  0
    1.2375    0.1830    0.0000 C   0  0  0  0  0  0  0  0  0  0  0  0
    0.8250    0.8974    0.0000 C   0  0  0  0  0  0  0  0  0  0  0  0
    0.0000    0.8974    0.0000 O   0  0  0  0  0  0  0  0  0  0  0  0
    1.2375    1.6119    0.0000 N   0  0  0  0  0  0  0  0  0  0  0  0
    2.0625    1.6119    0.0000 C   0  0  0  0  0  0  0  0  0  0  0  0
    2.4750    2.3264    0.0000 O   0  0  0  0  0  0  0  0  0  0  0  0
  1  2  1  0  0  0  0
  2  6  1  0  0  0  0
  2  3  1  0  0  0  0
  3  4  1  0  0  0  0
  4  5  1  0  0  0  0
  5  6  1  0  0  0  0
  6  7  1  0  0  0  0
  4  8  1  0  0  0  0
  8 14  1  0  0  0  0
  8  9  1  0  0  0  0
  9 10  2  0  0  0  0
 10 11  1  0  0  0  0
 11 12  2  0  0  0  0
 11 13  1  0  0  0  0
 13 14  1  0  0  0  0
 14 15  2  0  0  0  0
M  END
>  <CdId>
59

>  <Mol Weight>
212.21

>  <Formula>
C9H12N2O4

>  <Name>
2'-5'dideoxyuridine

>  <Mol_ID>
259

>  <MolWeight>
212.20

>  <LogD>
-0.47

$$$$
2'-acetylneriifolin
  Mrv2113 02112212262D          

 41 46  0  0  0  0            999 V2000
    0.0000    3.6116    0.0000 C   0  0  0  0  0  0  0  0  0  0  0  0
    0.4125    2.8971    0.0000 O   0  0  0  0  0  0  0  0  0  0  0  0
    1.2375    2.8971    0.0000 C   0  0  0  0  0  0  0  0  0  0  0  0
    1.6500    3.6116    0.0000 C   0  0  0  0  0  0  0  0  0  0  0  0
    1.2375    4.3261    0.0000 O   0  0  0  0  0  0  0  0  0  0  0  0
    2.4750    3.6116    0.0000 C   0  0  0  0  0  0  0  0  0  0  0  0
    2.8875    4.3261    0.0000 C   0  0  0  0  0  0  0  0  0  0  0  0
    2.8875    2.8971    0.0000 O   0  0  0  0  0  0  0  0  0  0  0  0
    2.4750    2.1826    0.0000 C   0  0  0  0  0  0  0  0  0  0  0  0
    2.8875    1.4682    0.0000 O   0  0  0  0  0  0  0  0  0  0  0  0
    3.7126    1.4682    0.0000 C   0  0  0  0  0  0  0  0  0  0  0  0
    4.1251    2.1826    0.0000 C   0  0  0  0  0  0  0  0  0  0  0  0
    4.9501    2.1826    0.0000 C   0  0  0  0  0  0  0  0  0  0  0  0
    5.3626    1.4682    0.0000 C   0  0  0  0  0  0  0  0  0  0  0  0
    5.7751    2.1826    0.0000 C   0  0  0  0  0  0  0  0  0  0  0  0
    4.9501    0.7537    0.0000 C   0  0  0  0  0  0  0  0  0  0  0  0
    5.3626    0.0392    0.0000 C   0  0  0  0  0  0  0  0  0  0  0  0
    6.1876    0.0392    0.0000 C   0  0  0  0  0  0  0  0  0  0  0  0
    6.6001    0.7537    0.0000 C   0  0  0  0  0  0  0  0  0  0  0  0
    6.1876    1.4682    0.0000 C   0  0  0  0  0  0  0  0  0  0  0  0
    6.6001    2.1826    0.0000 C   0  0  0  0  0  0  0  0  0  0  0  0
    7.4251    2.1826    0.0000 C   0  0  0  0  0  0  0  0  0  0  0  0
    7.8376    1.4682    0.0000 C   0  0  0  0  0  0  0  0  0  0  0  0
    8.3225    2.1356    0.0000 C   0  0  0  0  0  0  0  0  0  0  0  0
    8.6446    1.2966    0.0000 C   0  0  0  0  0  0  0  0  0  0  0  0
    8.7308    0.4761    0.0000 C   0  0  0  0  0  0  0  0  0  0  0  0
    7.9772    0.1406    0.0000 C   0  0  0  0  0  0  0  0  0  0  0  0
    7.4251    0.7537    0.0000 C   0  0  0  0  0  0  0  0  0  0  0  0
    7.0896    0.0000    0.0000 O   0  0  0  0  0  0  0  0  0  0  0  0
    9.2577    1.8487    0.0000 C   0  0  0  0  0  0  0  0  0  0  0  0
    9.1715    2.6691    0.0000 C   0  0  0  0  0  0  0  0  0  0  0  0
    9.9251    3.0047    0.0000 C   0  0  0  0  0  0  0  0  0  0  0  0
   10.0967    3.8117    0.0000 O   0  0  0  0  0  0  0  0  0  0  0  0
   10.4772    2.3916    0.0000 O   0  0  0  0  0  0  0  0  0  0  0  0
   10.0647    1.6771    0.0000 C   0  0  0  0  0  0  0  0  0  0  0  0
    4.1251    0.7537    0.0000 C   0  0  0  0  0  0  0  0  0  0  0  0
    1.6500    2.1826    0.0000 C   0  0  0  0  0  0  0  0  0  0  0  0
    1.2375    1.4682    0.0000 O   0  0  0  0  0  0  0  0  0  0  0  0
    0.4125    1.4682    0.0000 C   0  0  0  0  0  0  0  0  0  0  0  0
    0.0000    0.7537    0.0000 O   0  0  0  0  0  0  0  0  0  0  0  0
    0.0000    2.1826    0.0000 C   0  0  0  0  0  0  0  0  0  0  0  0
  1  2  1  0  0  0  0
  2  3  1  0  0  0  0
  3 37  1  0  0  0  0
  3  4  1  0  0  0  0
  4  5  1  0  0  0  0
  4  6  1  0  0  0  0
  6  7  1  0  0  0  0
  6  8  1  0  0  0  0
  8  9  1  0  0  0  0
  9 10  1  0  0  0  0
 10 11  1  0  0  0  0
 11 36  1  0  0  0  0
 11 12  1  0  0  0  0
 12 13  1  0  0  0  0
 13 14  1  0  0  0  0
 14 20  1  0  0  0  0
 14 15  1  0  0  0  0
 14 16  1  0  0  0  0
 16 17  1  0  0  0  0
 17 18  1  0  0  0  0
 18 19  1  0  0  0  0
 19 28  1  0  0  0  0
 19 20  1  0  0  0  0
 20 21  1  0  0  0  0
 21 22  1  0  0  0  0
 22 23  1  0  0  0  0
 23 28  1  0  0  0  0
 23 24  1  0  0  0  0
 23 25  1  0  0  0  0
 25 26  1  0  0  0  0
 26 27  1  0  0  0  0
 27 28  1  0  0  0  0
 28 29  1  0  0  0  0
 25 30  1  0  0  0  0
 30 35  1  0  0  0  0
 30 31  2  0  0  0  0
 31 32  1  0  0  0  0
 32 33  2  0  0  0  0
 32 34  1  0  0  0  0
 34 35  1  0  0  0  0
 16 36  1  0  0  0  0
  9 37  1  0  0  0  0
 37 38  1  0  0  0  0
 38 39  1  0  0  0  0
 39 40  2  0  0  0  0
 39 41  1  0  0  0  0
M  END
>  <CdId>
60

>  <Mol Weight>
576.73

>  <Formula>
C32H48O9

>  <Name>
2'-acetylneriifolin

>  <Mol_ID>
260

>  <MolWeight>
576.73

>  <LogD>
3.43

$$$$
2'-deoxy-adenosine 3'-monophosphate
  Mrv2113 02112212262D          

 22 24  0  0  0  0            999 V2000
    6.8856    1.9480    0.0000 N   0  0  0  0  0  0  0  0  0  0  0  0
    6.1711    1.5355    0.0000 C   0  0  0  0  0  0  0  0  0  0  0  0
    6.1711    0.7105    0.0000 N   0  0  0  0  0  0  0  0  0  0  0  0
    5.4567    0.2980    0.0000 C   0  0  0  0  0  0  0  0  0  0  0  0
    4.7422    0.7105    0.0000 N   0  0  0  0  0  0  0  0  0  0  0  0
    4.7422    1.5355    0.0000 C   0  0  0  0  0  0  0  0  0  0  0  0
    4.1291    2.0875    0.0000 N   0  0  0  0  0  0  0  0  0  0  0  0
    4.4646    2.8412    0.0000 C   0  0  0  0  0  0  0  0  0  0  0  0
    5.2851    2.7550    0.0000 N   0  0  0  0  0  0  0  0  0  0  0  0
    5.4567    1.9480    0.0000 C   0  0  0  0  0  0  0  0  0  0  0  0
    3.3221    1.9160    0.0000 C   0  0  0  0  0  0  0  0  0  0  0  0
    2.9865    1.1623    0.0000 C   0  0  0  0  0  0  0  0  0  0  0  0
    2.1660    1.2485    0.0000 C   0  0  0  0  0  0  0  0  0  0  0  0
    1.6140    0.6354    0.0000 O   0  0  0  0  0  0  0  0  0  0  0  0
    0.8070    0.8070    0.0000 P   0  0  0  0  0  0  0  0  0  0  0  0
    0.6354    0.0000    0.0000 O   0  0  0  0  0  0  0  0  0  0  0  0
    0.0000    0.9785    0.0000 O   0  0  0  0  0  0  0  0  0  0  0  0
    0.9785    1.6140    0.0000 O   0  0  0  0  0  0  0  0  0  0  0  0
    1.9945    2.0555    0.0000 C   0  0  0  0  0  0  0  0  0  0  0  0
    1.2408    2.3911    0.0000 C   0  0  0  0  0  0  0  0  0  0  0  0
    1.1546    3.2116    0.0000 O   0  0  0  0  0  0  0  0  0  0  0  0
    2.7090    2.4680    0.0000 O   0  0  0  0  0  0  0  0  0  0  0  0
  1  2  1  0  0  0  0
  2 10  2  0  0  0  0
  2  3  1  0  0  0  0
  3  4  2  0  0  0  0
  4  5  1  0  0  0  0
  5  6  2  0  0  0  0
  6 10  1  0  0  0  0
  6  7  1  0  0  0  0
  7  8  1  0  0  0  0
  8  9  2  0  0  0  0
  9 10  1  0  0  0  0
  7 11  1  0  0  0  0
 11 22  1  0  0  0  0
 11 12  1  0  0  0  0
 12 13  1  0  0  0  0
 13 14  1  0  0  0  0
 14 15  1  0  0  0  0
 15 16  2  0  0  0  0
 15 17  1  0  0  0  0
 15 18  1  0  0  0  0
 13 19  1  0  0  0  0
 19 20  1  0  0  0  0
 20 21  1  0  0  0  0
 19 22  1  0  0  0  0
M  END
>  <CdId>
61

>  <Mol Weight>
331.23

>  <Formula>
C10H14N5O6P

>  <Name>
2'-deoxy-adenosine 3'-monophosphate

>  <Mol_ID>
261

>  <MolWeight>
331.22

>  <LogD>
-4.97

$$$$
2'-deoxyadenosine 5'-triphosphate
  Mrv2113 02112212262D          

 30 32  0  0  0  0            999 V2000
    0.0000    1.7452    0.0000 N   0  0  0  0  0  0  0  0  0  0  0  0
    0.7537    2.0807    0.0000 C   0  0  0  0  0  0  0  0  0  0  0  0
    0.8399    2.9013    0.0000 N   0  0  0  0  0  0  0  0  0  0  0  0
    1.5936    3.2368    0.0000 C   0  0  0  0  0  0  0  0  0  0  0  0
    2.2611    2.7519    0.0000 N   0  0  0  0  0  0  0  0  0  0  0  0
    2.1748    1.9314    0.0000 C   0  0  0  0  0  0  0  0  0  0  0  0
    2.7268    1.3183    0.0000 N   0  0  0  0  0  0  0  0  0  0  0  0
    2.3143    0.6038    0.0000 C   0  0  0  0  0  0  0  0  0  0  0  0
    1.5074    0.7753    0.0000 N   0  0  0  0  0  0  0  0  0  0  0  0
    1.4211    1.5958    0.0000 C   0  0  0  0  0  0  0  0  0  0  0  0
    3.5474    1.4045    0.0000 C   0  0  0  0  0  0  0  0  0  0  0  0
    3.9599    2.1190    0.0000 C   0  0  0  0  0  0  0  0  0  0  0  0
    4.7669    1.9475    0.0000 C   0  0  0  0  0  0  0  0  0  0  0  0
    5.3800    2.4995    0.0000 O   0  0  0  0  0  0  0  0  0  0  0  0
    4.8531    1.1270    0.0000 C   0  0  0  0  0  0  0  0  0  0  0  0
    5.5675    0.7145    0.0000 C   0  0  0  0  0  0  0  0  0  0  0  0
    6.2820    1.1270    0.0000 O   0  0  0  0  0  0  0  0  0  0  0  0
    6.9965    0.7145    0.0000 P   0  0  0  0  0  0  0  0  0  0  0  0
    6.5840    0.0000    0.0000 O   0  0  0  0  0  0  0  0  0  0  0  0
    7.7110    0.3020    0.0000 O   0  0  0  0  0  0  0  0  0  0  0  0
    7.4090    1.4290    0.0000 O   0  0  0  0  0  0  0  0  0  0  0  0
    8.2340    1.4290    0.0000 P   0  0  0  0  0  0  0  0  0  0  0  0
    8.2340    0.6040    0.0000 O   0  0  0  0  0  0  0  0  0  0  0  0
    9.0590    1.4290    0.0000 O   0  0  0  0  0  0  0  0  0  0  0  0
    8.2340    2.2540    0.0000 O   0  0  0  0  0  0  0  0  0  0  0  0
    8.9485    2.6665    0.0000 P   0  0  0  0  0  0  0  0  0  0  0  0
    9.3610    1.9520    0.0000 O   0  0  0  0  0  0  0  0  0  0  0  0
    8.5360    3.3810    0.0000 O   0  0  0  0  0  0  0  0  0  0  0  0
    9.6630    3.0790    0.0000 O   0  0  0  0  0  0  0  0  0  0  0  0
    4.0994    0.7914    0.0000 O   0  0  0  0  0  0  0  0  0  0  0  0
  1  2  1  0  0  0  0
  2 10  2  0  0  0  0
  2  3  1  0  0  0  0
  3  4  2  0  0  0  0
  4  5  1  0  0  0  0
  5  6  2  0  0  0  0
  6 10  1  0  0  0  0
  6  7  1  0  0  0  0
  7  8  1  0  0  0  0
  8  9  2  0  0  0  0
  9 10  1  0  0  0  0
  7 11  1  0  0  0  0
 11 30  1  0  0  0  0
 11 12  1  0  0  0  0
 12 13  1  0  0  0  0
 13 14  1  0  0  0  0
 13 15  1  0  0  0  0
 15 16  1  0  0  0  0
 16 17  1  0  0  0  0
 17 18  1  0  0  0  0
 18 19  2  0  0  0  0
 18 20  1  0  0  0  0
 18 21  1  0  0  0  0
 21 22  1  0  0  0  0
 22 23  2  0  0  0  0
 22 24  1  0  0  0  0
 22 25  1  0  0  0  0
 25 26  1  0  0  0  0
 26 27  2  0  0  0  0
 26 28  1  0  0  0  0
 26 29  1  0  0  0  0
 15 30  1  0  0  0  0
M  END
>  <CdId>
62

>  <Mol Weight>
491.18

>  <Formula>
C10H16N5O12P3

>  <Name>
2'-deoxyadenosine 5'-triphosphate

>  <Mol_ID>
262

>  <MolWeight>
491.18

>  <LogD>
-9.57

$$$$
2'-hydroxy, 3'-ketocyclopent-4'-enyladenine
  Mrv2113 02112212262D          

 17 19  0  0  0  0            999 V2000
    0.0000    1.3405    0.0000 N   0  0  0  0  0  0  0  0  0  0  0  0
    0.7144    1.7530    0.0000 C   0  0  0  0  0  0  0  0  0  0  0  0
    0.7144    2.5780    0.0000 N   0  0  0  0  0  0  0  0  0  0  0  0
    1.4289    2.9905    0.0000 C   0  0  0  0  0  0  0  0  0  0  0  0
    2.1434    2.5780    0.0000 N   0  0  0  0  0  0  0  0  0  0  0  0
    2.1434    1.7530    0.0000 C   0  0  0  0  0  0  0  0  0  0  0  0
    2.7565    1.2010    0.0000 N   0  0  0  0  0  0  0  0  0  0  0  0
    2.4209    0.4473    0.0000 C   0  0  0  0  0  0  0  0  0  0  0  0
    1.6004    0.5335    0.0000 N   0  0  0  0  0  0  0  0  0  0  0  0
    1.4289    1.3405    0.0000 C   0  0  0  0  0  0  0  0  0  0  0  0
    3.5634    1.3725    0.0000 C   0  0  0  0  0  0  0  0  0  0  0  0
    3.8990    2.1262    0.0000 C   0  0  0  0  0  0  0  0  0  0  0  0
    4.7195    2.0399    0.0000 C   0  0  0  0  0  0  0  0  0  0  0  0
    4.8910    1.2330    0.0000 C   0  0  0  0  0  0  0  0  0  0  0  0
    5.6447    0.8974    0.0000 O   0  0  0  0  0  0  0  0  0  0  0  0
    4.1765    0.8205    0.0000 C   0  0  0  0  0  0  0  0  0  0  0  0
    4.0903    0.0000    0.0000 O   0  0  0  0  0  0  0  0  0  0  0  0
  1  2  1  0  0  0  0
  2 10  2  0  0  0  0
  2  3  1  0  0  0  0
  3  4  2  0  0  0  0
  4  5  1  0  0  0  0
  5  6  2  0  0  0  0
  6 10  1  0  0  0  0
  6  7  1  0  0  0  0
  7  8  1  0  0  0  0
  8  9  2  0  0  0  0
  9 10  1  0  0  0  0
  7 11  1  0  0  0  0
 11 16  1  0  0  0  0
 11 12  1  0  0  0  0
 12 13  2  0  0  0  0
 13 14  1  0  0  0  0
 14 15  1  0  0  0  0
 14 16  1  0  0  0  0
 16 17  1  0  0  0  0
M  END
>  <CdId>
63

>  <Mol Weight>
233.23

>  <Formula>
C10H11N5O2

>  <Name>
2'-hydroxy, 3'-ketocyclopent-4'-enyladenine

>  <Mol_ID>
263

>  <MolWeight>
233.23

>  <LogD>
-1.15

$$$$
2'-Hydroxy-lanneaquinol
  Mrv2113 02112212262D          

 26 26  0  0  0  0            999 V2000
   12.8607    1.2375    0.0000 C   0  0  0  0  0  0  0  0  0  0  0  0
   12.1463    0.8250    0.0000 C   0  0  0  0  0  0  0  0  0  0  0  0
   11.4318    1.2375    0.0000 C   0  0  0  0  0  0  0  0  0  0  0  0
   10.7173    0.8250    0.0000 C   0  0  0  0  0  0  0  0  0  0  0  0
   10.0028    1.2375    0.0000 C   0  0  0  0  0  0  0  0  0  0  0  0
    9.2883    0.8250    0.0000 C   0  0  0  0  0  0  0  0  0  0  0  0
    8.5738    1.2375    0.0000 C   0  0  0  0  0  0  0  0  0  0  0  0
    7.8594    0.8250    0.0000 C   0  0  0  0  0  0  0  0  0  0  0  0
    7.1449    1.2375    0.0000 C   0  0  0  0  0  0  0  0  0  0  0  0
    6.4304    0.8250    0.0000 C   0  0  0  0  0  0  0  0  0  0  0  0
    5.7159    1.2375    0.0000 C   0  0  0  0  0  0  0  0  0  0  0  0
    5.0014    0.8250    0.0000 C   0  0  0  0  0  0  0  0  0  0  0  0
    4.2869    1.2375    0.0000 C   0  0  0  0  0  0  0  0  0  0  0  0
    3.5724    0.8250    0.0000 C   0  0  0  0  0  0  0  0  0  0  0  0
    2.8579    1.2375    0.0000 C   0  0  0  0  0  0  0  0  0  0  0  0
    2.1435    0.8250    0.0000 C   0  0  0  0  0  0  0  0  0  0  0  0
    2.1435    0.0000    0.0000 O   0  0  0  0  0  0  0  0  0  0  0  0
    1.4290    1.2375    0.0000 C   0  0  0  0  0  0  0  0  0  0  0  0
    1.4290    2.0625    0.0000 C   0  0  0  0  0  0  0  0  0  0  0  0
    0.7145    2.4751    0.0000 C   0  0  0  0  0  0  0  0  0  0  0  0
    0.7145    3.3001    0.0000 C   0  0  0  0  0  0  0  0  0  0  0  0
    0.0000    3.7126    0.0000 O   0  0  0  0  0  0  0  0  0  0  0  0
    1.4290    3.7126    0.0000 C   0  0  0  0  0  0  0  0  0  0  0  0
    2.1435    3.3001    0.0000 C   0  0  0  0  0  0  0  0  0  0  0  0
    2.1435    2.4751    0.0000 C   0  0  0  0  0  0  0  0  0  0  0  0
    2.8579    2.0625    0.0000 O   0  0  0  0  0  0  0  0  0  0  0  0
  1  2  1  0  0  0  0
  2  3  1  0  0  0  0
  3  4  1  0  0  0  0
  4  5  1  0  0  0  0
  5  6  1  0  0  0  0
  6  7  1  0  0  0  0
  7  8  1  0  0  0  0
  8  9  1  0  0  0  0
  9 10  2  0  0  0  0
 10 11  1  0  0  0  0
 11 12  1  0  0  0  0
 12 13  1  0  0  0  0
 13 14  1  0  0  0  0
 14 15  1  0  0  0  0
 15 16  1  0  0  0  0
 16 17  1  0  0  0  0
 16 18  1  0  0  0  0
 18 19  1  0  0  0  0
 19 25  2  0  0  0  0
 19 20  1  0  0  0  0
 20 21  2  0  0  0  0
 21 22  1  0  0  0  0
 21 23  1  0  0  0  0
 23 24  2  0  0  0  0
 24 25  1  0  0  0  0
 25 26  1  0  0  0  0
M  END
>  <CdId>
64

>  <Mol Weight>
362.55

>  <Formula>
C23H38O3

>  <Name>
2'-Hydroxy-lanneaquinol

>  <Mol_ID>
264

>  <MolWeight>
362.55

>  <LogD>
7.24

$$$$
2'-Hydroxy-neobavaisoflavone
  Mrv2113 02112212262D          

 25 27  0  0  0  0            999 V2000
    8.2500    2.8579    0.0000 C   0  0  0  0  0  0  0  0  0  0  0  0
    7.4250    2.8579    0.0000 C   0  0  0  0  0  0  0  0  0  0  0  0
    7.0125    2.1434    0.0000 C   0  0  0  0  0  0  0  0  0  0  0  0
    6.1875    2.1434    0.0000 C   0  0  0  0  0  0  0  0  0  0  0  0
    5.7750    1.4290    0.0000 C   0  0  0  0  0  0  0  0  0  0  0  0
    6.1875    0.7144    0.0000 C   0  0  0  0  0  0  0  0  0  0  0  0
    7.0125    0.7144    0.0000 O   0  0  0  0  0  0  0  0  0  0  0  0
    5.7750    0.0000    0.0000 C   0  0  0  0  0  0  0  0  0  0  0  0
    4.9500    0.0000    0.0000 C   0  0  0  0  0  0  0  0  0  0  0  0
    4.5375    0.7144    0.0000 C   0  0  0  0  0  0  0  0  0  0  0  0
    3.7125    0.7144    0.0000 C   0  0  0  0  0  0  0  0  0  0  0  0
    3.3000    0.0000    0.0000 C   0  0  0  0  0  0  0  0  0  0  0  0
    2.4750    0.0000    0.0000 O   0  0  0  0  0  0  0  0  0  0  0  0
    2.0625    0.7144    0.0000 C   0  0  0  0  0  0  0  0  0  0  0  0
    1.2375    0.7144    0.0000 C   0  0  0  0  0  0  0  0  0  0  0  0
    0.8250    1.4290    0.0000 C   0  0  0  0  0  0  0  0  0  0  0  0
    0.0000    1.4290    0.0000 O   0  0  0  0  0  0  0  0  0  0  0  0
    1.2375    2.1434    0.0000 C   0  0  0  0  0  0  0  0  0  0  0  0
    2.0625    2.1434    0.0000 C   0  0  0  0  0  0  0  0  0  0  0  0
    2.4750    1.4290    0.0000 C   0  0  0  0  0  0  0  0  0  0  0  0
    3.3000    1.4290    0.0000 C   0  0  0  0  0  0  0  0  0  0  0  0
    3.7125    2.1434    0.0000 O   0  0  0  0  0  0  0  0  0  0  0  0
    4.9500    1.4290    0.0000 C   0  0  0  0  0  0  0  0  0  0  0  0
    4.5375    2.1434    0.0000 O   0  0  0  0  0  0  0  0  0  0  0  0
    7.0125    3.5724    0.0000 C   0  0  0  0  0  0  0  0  0  0  0  0
  1  2  1  0  0  0  0
  2  3  2  0  0  0  0
  3  4  1  0  0  0  0
  4  5  1  0  0  0  0
  5 23  2  0  0  0  0
  5  6  1  0  0  0  0
  6  7  1  0  0  0  0
  6  8  2  0  0  0  0
  8  9  1  0  0  0  0
  9 10  2  0  0  0  0
 10 11  1  0  0  0  0
 11 21  1  0  0  0  0
 11 12  1  0  0  0  0
 12 13  1  0  0  0  0
 13 14  1  0  0  0  0
 14 20  2  0  0  0  0
 14 15  1  0  0  0  0
 15 16  2  0  0  0  0
 16 17  1  0  0  0  0
 16 18  1  0  0  0  0
 18 19  2  0  0  0  0
 19 20  1  0  0  0  0
 20 21  1  0  0  0  0
 21 22  2  0  0  0  0
 10 23  1  0  0  0  0
 23 24  1  0  0  0  0
  2 25  1  0  0  0  0
M  END
>  <CdId>
65

>  <Mol Weight>
340.38

>  <Formula>
C20H20O5

>  <Name>
2'-Hydroxy-neobavaisoflavone

>  <Mol_ID>
265

>  <MolWeight>
340.38

>  <LogD>
3.64

$$$$
2'-O-acetylstrictosamide
  Mrv2113 02112212262D          

 39 44  0  0  0  0            999 V2000
    0.0000    1.4290    0.0000 C   0  0  0  0  0  0  0  0  0  0  0  0
    0.4125    2.1434    0.0000 C   0  0  0  0  0  0  0  0  0  0  0  0
    0.0000    2.8579    0.0000 O   0  0  0  0  0  0  0  0  0  0  0  0
    1.2375    2.1434    0.0000 O   0  0  0  0  0  0  0  0  0  0  0  0
    1.6500    2.8579    0.0000 C   0  0  0  0  0  0  0  0  0  0  0  0
    1.2375    3.5724    0.0000 C   0  0  0  0  0  0  0  0  0  0  0  0
    0.4125    3.5724    0.0000 O   0  0  0  0  0  0  0  0  0  0  0  0
    1.6500    4.2868    0.0000 C   0  0  0  0  0  0  0  0  0  0  0  0
    1.2375    5.0013    0.0000 C   0  0  0  0  0  0  0  0  0  0  0  0
    0.4125    5.0013    0.0000 O   0  0  0  0  0  0  0  0  0  0  0  0
    2.4750    4.2868    0.0000 O   0  0  0  0  0  0  0  0  0  0  0  0
    2.8875    3.5724    0.0000 C   0  0  0  0  0  0  0  0  0  0  0  0
    3.7125    3.5724    0.0000 O   0  0  0  0  0  0  0  0  0  0  0  0
    4.1250    2.8579    0.0000 C   0  0  0  0  0  0  0  0  0  0  0  0
    3.7125    2.1434    0.0000 O   0  0  0  0  0  0  0  0  0  0  0  0
    4.1250    1.4290    0.0000 C   0  0  0  0  0  0  0  0  0  0  0  0
    4.9500    1.4290    0.0000 C   0  0  0  0  0  0  0  0  0  0  0  0
    5.3625    2.1434    0.0000 C   0  0  0  0  0  0  0  0  0  0  0  0
    6.1875    2.1434    0.0000 C   0  0  0  0  0  0  0  0  0  0  0  0
    6.6000    1.4290    0.0000 C   0  0  0  0  0  0  0  0  0  0  0  0
    7.4250    1.4290    0.0000 C   0  0  0  0  0  0  0  0  0  0  0  0
    7.9770    2.0421    0.0000 N   0  0  0  0  0  0  0  0  0  0  0  0
    8.7307    1.7065    0.0000 C   0  0  0  0  0  0  0  0  0  0  0  0
    9.4844    2.0421    0.0000 C   0  0  0  0  0  0  0  0  0  0  0  0
   10.1518    1.5571    0.0000 C   0  0  0  0  0  0  0  0  0  0  0  0
   10.0656    0.7366    0.0000 C   0  0  0  0  0  0  0  0  0  0  0  0
    9.3119    0.4011    0.0000 C   0  0  0  0  0  0  0  0  0  0  0  0
    8.6445    0.8860    0.0000 C   0  0  0  0  0  0  0  0  0  0  0  0
    7.8375    0.7144    0.0000 C   0  0  0  0  0  0  0  0  0  0  0  0
    7.4250    0.0000    0.0000 C   0  0  0  0  0  0  0  0  0  0  0  0
    6.6000    0.0000    0.0000 C   0  0  0  0  0  0  0  0  0  0  0  0
    6.1875    0.7144    0.0000 N   0  0  0  0  0  0  0  0  0  0  0  0
    5.3625    0.7144    0.0000 C   0  0  0  0  0  0  0  0  0  0  0  0
    4.9500    0.0000    0.0000 O   0  0  0  0  0  0  0  0  0  0  0  0
    4.9500    2.8579    0.0000 C   0  0  0  0  0  0  0  0  0  0  0  0
    5.3625    3.5724    0.0000 C   0  0  0  0  0  0  0  0  0  0  0  0
    4.9500    4.2868    0.0000 C   0  0  0  0  0  0  0  0  0  0  0  0
    2.4750    2.8579    0.0000 C   0  0  0  0  0  0  0  0  0  0  0  0
    2.8875    2.1434    0.0000 O   0  0  0  0  0  0  0  0  0  0  0  0
  1  2  1  0  0  0  0
  2  3  2  0  0  0  0
  2  4  1  0  0  0  0
  4  5  1  0  0  0  0
 38  5  1  0  0  0  0
  5  6  1  0  0  0  0
  6  7  1  0  0  0  0
  6  8  1  0  0  0  0
  8  9  1  0  0  0  0
  9 10  1  0  0  0  0
  8 11  1  0  0  0  0
 11 12  1  0  0  0  0
 12 13  1  0  0  0  0
 13 14  1  0  0  0  0
 35 14  1  0  0  0  0
 14 15  1  0  0  0  0
 15 16  1  0  0  0  0
 16 17  2  0  0  0  0
 33 17  1  0  0  0  0
 17 18  1  0  0  0  0
 18 19  1  0  0  0  0
 19 20  1  0  0  0  0
 32 20  1  0  0  0  0
 20 21  1  0  0  0  0
 21 29  1  0  0  0  0
 21 22  1  0  0  0  0
 22 23  1  0  0  0  0
 23 28  2  0  0  0  0
 23 24  1  0  0  0  0
 24 25  2  0  0  0  0
 25 26  1  0  0  0  0
 26 27  2  0  0  0  0
 27 28  1  0  0  0  0
 28 29  1  0  0  0  0
 29 30  1  0  0  0  0
 31 30  1  0  0  0  0
 31 32  1  0  0  0  0
 32 33  1  0  0  0  0
 33 34  2  0  0  0  0
 35 18  1  0  0  0  0
 35 36  1  0  0  0  0
 36 37  2  0  0  0  0
 38 12  1  0  0  0  0
 38 39  1  0  0  0  0
M  END
>  <CdId>
66

>  <Mol Weight>
542.59

>  <Formula>
C28H34N2O9

>  <Name>
2'-O-acetylstrictosamide

>  <Mol_ID>
266

>  <MolWeight>
542.58

>  <LogD>
-0.10

$$$$
2(r),5(r)-bis(hydroxymethyl)-3(r),4(r)-dihydroxypyrrolidine
  Mrv2113 02112212262D          

 11 11  0  0  0  0            999 V2000
    0.0000    0.8902    0.0000 O   0  0  0  0  0  0  0  0  0  0  0  0
    0.7537    0.5546    0.0000 C   0  0  0  0  0  0  0  0  0  0  0  0
    1.4211    1.0396    0.0000 C   0  0  0  0  0  0  0  0  0  0  0  0
    1.4211    1.8646    0.0000 N   0  0  0  0  0  0  0  0  0  0  0  0
    2.2058    2.1195    0.0000 C   0  0  0  0  0  0  0  0  0  0  0  0
    2.4607    2.9041    0.0000 C   0  0  0  0  0  0  0  0  0  0  0  0
    1.8773    3.4875    0.0000 O   0  0  0  0  0  0  0  0  0  0  0  0
    2.6907    1.4521    0.0000 C   0  0  0  0  0  0  0  0  0  0  0  0
    3.5157    1.4521    0.0000 O   0  0  0  0  0  0  0  0  0  0  0  0
    2.2058    0.7846    0.0000 C   0  0  0  0  0  0  0  0  0  0  0  0
    2.4607    0.0000    0.0000 O   0  0  0  0  0  0  0  0  0  0  0  0
  1  2  1  0  0  0  0
  2  3  1  0  0  0  0
  3 10  1  0  0  0  0
  3  4  1  0  0  0  0
  4  5  1  0  0  0  0
  5  6  1  0  0  0  0
  6  7  1  0  0  0  0
  5  8  1  0  0  0  0
  8  9  1  0  0  0  0
  8 10  1  0  0  0  0
 10 11  1  0  0  0  0
M  END
>  <CdId>
67

>  <Mol Weight>
163.17

>  <Formula>
C6H13NO4

>  <Name>
2(r),5(r)-bis(hydroxymethyl)-3(r),4(r)-dihydroxypyrrolidine

>  <Mol_ID>
267

>  <MolWeight>
163.17

>  <LogD>
-4.38

$$$$
2(s)-amino-6-boronohexanoic acid
  Mrv2113 02112212262D          

 13 12  0  0  0  0            999 V2000
    5.0014    0.7145    0.0000 N   0  0  0  0  0  0  0  0  0  0  0  0
    4.2869    1.1270    0.0000 C   0  0  0  0  0  0  0  0  0  0  0  0
    3.5724    0.7145    0.0000 C   0  0  0  0  0  0  0  0  0  0  0  0
    2.8579    1.1270    0.0000 C   0  0  0  0  0  0  0  0  0  0  0  0
    2.1435    0.7145    0.0000 C   0  0  0  0  0  0  0  0  0  0  0  0
    1.4290    1.1270    0.0000 C   0  0  0  0  0  0  0  0  0  0  0  0
    0.7145    0.7145    0.0000 B   0  5  0  0  0  0  0  0  0  0  0  0
    0.3020    1.4290    0.0000 O   0  0  0  0  0  0  0  0  0  0  0  0
    1.1270    0.0000    0.0000 O   0  0  0  0  0  0  0  0  0  0  0  0
    0.0000    0.3020    0.0000 O   0  0  0  0  0  0  0  0  0  0  0  0
    4.2869    1.9520    0.0000 C   0  0  0  0  0  0  0  0  0  0  0  0
    3.5724    2.3645    0.0000 O   0  0  0  0  0  0  0  0  0  0  0  0
    5.0014    2.3645    0.0000 O   0  0  0  0  0  0  0  0  0  0  0  0
  1  2  1  0  0  0  0
  2  3  1  0  0  0  0
  3  4  1  0  0  0  0
  4  5  1  0  0  0  0
  5  6  1  0  0  0  0
  6  7  1  0  0  0  0
  7  8  1  0  0  0  0
  7  9  1  0  0  0  0
  7 10  1  0  0  0  0
  2 11  1  0  0  0  0
 11 12  2  0  0  0  0
 11 13  1  0  0  0  0
M  CHG  1   7  -1
M  END
>  <CdId>
68

>  <Mol Weight>
192.00

>  <Formula>
C6H15BNO5

>  <Name>
2(s)-amino-6-boronohexanoic acid

>  <Mol_ID>
268

>  <MolWeight>
192.00

>  <LogD>
-4.97

$$$$
2,2-bipyridyl
  Mrv2113 02112212262D          

 12 13  0  0  0  0            999 V2000
    4.1250    0.7145    0.0000 C   0  0  0  0  0  0  0  0  0  0  0  0
    3.7125    0.0000    0.0000 C   0  0  0  0  0  0  0  0  0  0  0  0
    2.8875    0.0000    0.0000 C   0  0  0  0  0  0  0  0  0  0  0  0
    2.4750    0.7145    0.0000 C   0  0  0  0  0  0  0  0  0  0  0  0
    2.8875    1.4290    0.0000 N   0  0  0  0  0  0  0  0  0  0  0  0
    3.7125    1.4290    0.0000 C   0  0  0  0  0  0  0  0  0  0  0  0
    1.6500    0.7145    0.0000 C   0  0  0  0  0  0  0  0  0  0  0  0
    1.2375    0.0000    0.0000 C   0  0  0  0  0  0  0  0  0  0  0  0
    0.4125    0.0000    0.0000 C   0  0  0  0  0  0  0  0  0  0  0  0
    0.0000    0.7145    0.0000 C   0  0  0  0  0  0  0  0  0  0  0  0
    0.4125    1.4290    0.0000 C   0  0  0  0  0  0  0  0  0  0  0  0
    1.2375    1.4290    0.0000 N   0  0  0  0  0  0  0  0  0  0  0  0
  1  6  2  0  0  0  0
  1  2  1  0  0  0  0
  2  3  2  0  0  0  0
  3  4  1  0  0  0  0
  4  5  2  0  0  0  0
  5  6  1  0  0  0  0
  4  7  1  0  0  0  0
  7 12  2  0  0  0  0
  7  8  1  0  0  0  0
  8  9  2  0  0  0  0
  9 10  1  0  0  0  0
 10 11  2  0  0  0  0
 11 12  1  0  0  0  0
M  END
>  <CdId>
69

>  <Mol Weight>
156.19

>  <Formula>
C10H8N2

>  <Name>
2,2-bipyridyl

>  <Mol_ID>
269

>  <MolWeight>
156.19

>  <LogD>
1.96

$$$$
2,3-(4-benzenesulfonyl-thiophene-2-sulfonylamino)-phenylboronic acid
  Mrv2113 02112212262D          

 27 29  0  0  0  0            999 V2000
    6.8943    0.0000    0.0000 O   0  0  0  0  0  0  0  0  0  0  0  0
    7.3068    0.7145    0.0000 B   0  0  0  0  0  0  0  0  0  0  0  0
    8.1319    0.7145    0.0000 O   0  0  0  0  0  0  0  0  0  0  0  0
    6.8943    1.4290    0.0000 C   0  0  0  0  0  0  0  0  0  0  0  0
    7.3068    2.1434    0.0000 C   0  0  0  0  0  0  0  0  0  0  0  0
    6.8943    2.8579    0.0000 C   0  0  0  0  0  0  0  0  0  0  0  0
    6.0693    2.8579    0.0000 C   0  0  0  0  0  0  0  0  0  0  0  0
    5.6568    2.1434    0.0000 C   0  0  0  0  0  0  0  0  0  0  0  0
    4.8318    2.1434    0.0000 N   0  0  0  0  0  0  0  0  0  0  0  0
    4.4193    2.8579    0.0000 S   0  0  0  0  0  0  0  0  0  0  0  0
    3.7048    2.4454    0.0000 O   0  0  0  0  0  0  0  0  0  0  0  0
    5.1338    3.2704    0.0000 O   0  0  0  0  0  0  0  0  0  0  0  0
    4.0068    3.5724    0.0000 C   0  0  0  0  0  0  0  0  0  0  0  0
    3.1863    3.6586    0.0000 C   0  0  0  0  0  0  0  0  0  0  0  0
    3.0148    4.4656    0.0000 C   0  0  0  0  0  0  0  0  0  0  0  0
    3.7292    4.8781    0.0000 C   0  0  0  0  0  0  0  0  0  0  0  0
    4.3423    4.3261    0.0000 S   0  0  0  0  0  0  0  0  0  0  0  0
    2.2611    4.8012    0.0000 S   0  0  0  0  0  0  0  0  0  0  0  0
    2.5966    5.5549    0.0000 O   0  0  0  0  0  0  0  0  0  0  0  0
    1.9255    4.0475    0.0000 O   0  0  0  0  0  0  0  0  0  0  0  0
    1.5074    5.1368    0.0000 C   0  0  0  0  0  0  0  0  0  0  0  0
    1.4211    5.9572    0.0000 C   0  0  0  0  0  0  0  0  0  0  0  0
    0.6674    6.2928    0.0000 C   0  0  0  0  0  0  0  0  0  0  0  0
    0.0000    5.8078    0.0000 C   0  0  0  0  0  0  0  0  0  0  0  0
    0.0862    4.9874    0.0000 C   0  0  0  0  0  0  0  0  0  0  0  0
    0.8399    4.6518    0.0000 C   0  0  0  0  0  0  0  0  0  0  0  0
    6.0693    1.4290    0.0000 C   0  0  0  0  0  0  0  0  0  0  0  0
  1  2  1  0  0  0  0
  2  3  1  0  0  0  0
  2  4  1  0  0  0  0
  4 27  2  0  0  0  0
  4  5  1  0  0  0  0
  5  6  2  0  0  0  0
  6  7  1  0  0  0  0
  7  8  2  0  0  0  0
  8  9  1  0  0  0  0
  9 10  1  0  0  0  0
 10 11  2  0  0  0  0
 10 12  2  0  0  0  0
 10 13  1  0  0  0  0
 13 17  1  0  0  0  0
 13 14  2  0  0  0  0
 14 15  1  0  0  0  0
 15 16  2  0  0  0  0
 16 17  1  0  0  0  0
 15 18  1  0  0  0  0
 18 19  2  0  0  0  0
 18 20  2  0  0  0  0
 18 21  1  0  0  0  0
 21 26  2  0  0  0  0
 21 22  1  0  0  0  0
 22 23  2  0  0  0  0
 23 24  1  0  0  0  0
 24 25  2  0  0  0  0
 25 26  1  0  0  0  0
  8 27  1  0  0  0  0
M  END
>  <CdId>
70

>  <Mol Weight>
423.28

>  <Formula>
C16H14BNO6S3

>  <Name>
2,3-(4-benzenesulfonyl-thiophene-2-sulfonylamino)-phenylboronic acid

>  <Mol_ID>
270

>  <MolWeight>
423.28

>  <LogD>
1.67

$$$$
2,3-butanedione
  Mrv2113 02112212262D          

  6  5  0  0  0  0            999 V2000
    2.0625    1.4290    0.0000 C   0  0  0  0  0  0  0  0  0  0  0  0
    1.2375    1.4290    0.0000 C   0  0  0  0  0  0  0  0  0  0  0  0
    0.8250    2.1434    0.0000 O   0  0  0  0  0  0  0  0  0  0  0  0
    0.8250    0.7144    0.0000 C   0  0  0  0  0  0  0  0  0  0  0  0
    1.2375    0.0000    0.0000 O   0  0  0  0  0  0  0  0  0  0  0  0
    0.0000    0.7144    0.0000 C   0  0  0  0  0  0  0  0  0  0  0  0
  1  2  1  0  0  0  0
  2  3  2  0  0  0  0
  2  4  1  0  0  0  0
  4  5  2  0  0  0  0
  4  6  1  0  0  0  0
M  END
>  <CdId>
71

>  <Mol Weight>
86.09

>  <Formula>
C4H6O2

>  <Name>
2,3-butanedione

>  <Mol_ID>
271

>  <MolWeight>
86.09

>  <LogD>
0.40

$$$$
2,3-butanedione monoxime
  Mrv2113 02112212262D          

  7  6  0  0  0  0            999 V2000
    2.4750    0.0000    0.0000 C   0  0  0  0  0  0  0  0  0  0  0  0
    2.0625    0.7144    0.0000 C   0  0  0  0  0  0  0  0  0  0  0  0
    2.4750    1.4290    0.0000 O   0  0  0  0  0  0  0  0  0  0  0  0
    1.2375    0.7144    0.0000 C   0  0  0  0  0  0  0  0  0  0  0  0
    0.8250    0.0000    0.0000 N   0  0  0  0  0  0  0  0  0  0  0  0
    0.0000    0.0000    0.0000 O   0  0  0  0  0  0  0  0  0  0  0  0
    0.8250    1.4290    0.0000 C   0  0  0  0  0  0  0  0  0  0  0  0
  1  2  1  0  0  0  0
  2  3  2  0  0  0  0
  2  4  1  0  0  0  0
  4  5  2  0  0  0  0
  5  6  1  0  0  0  0
  4  7  1  0  0  0  0
M  END
>  <CdId>
72

>  <Mol Weight>
101.11

>  <Formula>
C4H7NO2

>  <Name>
2,3-butanedione monoxime

>  <Mol_ID>
272

>  <MolWeight>
101.10

>  <LogD>
0.37

$$$$
2,3-di-northromboxane B2
  Mrv2113 02112212262D          

 24 24  0  0  0  0            999 V2000
    0.0000    3.3001    0.0000 C   0  0  0  0  0  0  0  0  0  0  0  0
    0.7145    3.7126    0.0000 C   0  0  0  0  0  0  0  0  0  0  0  0
    1.4290    3.3001    0.0000 C   0  0  0  0  0  0  0  0  0  0  0  0
    2.1435    3.7126    0.0000 C   0  0  0  0  0  0  0  0  0  0  0  0
    2.8579    3.3001    0.0000 C   0  0  0  0  0  0  0  0  0  0  0  0
    3.5724    3.7126    0.0000 C   0  0  0  0  0  0  0  0  0  0  0  0
    3.5724    4.5376    0.0000 O   0  0  0  0  0  0  0  0  0  0  0  0
    4.2869    3.3001    0.0000 C   0  0  0  0  0  0  0  0  0  0  0  0
    4.2869    2.4751    0.0000 C   0  0  0  0  0  0  0  0  0  0  0  0
    5.0014    2.0625    0.0000 C   0  0  0  0  0  0  0  0  0  0  0  0
    5.7159    2.4751    0.0000 O   0  0  0  0  0  0  0  0  0  0  0  0
    6.4304    2.0625    0.0000 C   0  0  0  0  0  0  0  0  0  0  0  0
    7.1449    2.4751    0.0000 O   0  0  0  0  0  0  0  0  0  0  0  0
    6.4304    1.2375    0.0000 C   0  0  0  0  0  0  0  0  0  0  0  0
    5.7159    0.8250    0.0000 C   0  0  0  0  0  0  0  0  0  0  0  0
    5.7159    0.0000    0.0000 O   0  0  0  0  0  0  0  0  0  0  0  0
    5.0014    1.2375    0.0000 C   0  0  0  0  0  0  0  0  0  0  0  0
    4.2869    0.8250    0.0000 C   0  0  0  0  0  0  0  0  0  0  0  0
    3.5724    1.2375    0.0000 C   0  0  0  0  0  0  0  0  0  0  0  0
    2.8579    0.8250    0.0000 C   0  0  0  0  0  0  0  0  0  0  0  0
    2.1435    1.2375    0.0000 C   0  0  0  0  0  0  0  0  0  0  0  0
    1.4290    0.8250    0.0000 C   0  0  0  0  0  0  0  0  0  0  0  0
    1.4290    0.0000    0.0000 O   0  0  0  0  0  0  0  0  0  0  0  0
    0.7145    1.2375    0.0000 O   0  0  0  0  0  0  0  0  0  0  0  0
  1  2  1  0  0  0  0
  2  3  1  0  0  0  0
  3  4  1  0  0  0  0
  4  5  1  0  0  0  0
  5  6  1  0  0  0  0
  6  7  1  0  0  0  0
  6  8  1  0  0  0  0
  8  9  2  0  0  0  0
  9 10  1  0  0  0  0
 10 17  1  0  0  0  0
 10 11  1  0  0  0  0
 11 12  1  0  0  0  0
 12 13  1  0  0  0  0
 12 14  1  0  0  0  0
 14 15  1  0  0  0  0
 15 16  1  0  0  0  0
 15 17  1  0  0  0  0
 17 18  1  0  0  0  0
 18 19  1  0  0  0  0
 19 20  2  0  0  0  0
 20 21  1  0  0  0  0
 21 22  1  0  0  0  0
 22 23  2  0  0  0  0
 22 24  1  0  0  0  0
M  END
>  <CdId>
73

>  <Mol Weight>
342.43

>  <Formula>
C18H30O6

>  <Name>
2,3-di-northromboxane B2

>  <Mol_ID>
273

>  <MolWeight>
342.43

>  <LogD>
-1.00

$$$$
2,3-dicarboxy-4-(2-chloro-phenyl)-1-ethyl-5-isopropoxycarbonyl-6-methyl-pyridini
  Mrv2113 02112212262D          

 28 29  0  0  0  0            999 V2000
    0.0000    3.1190    0.0000 C   0  0  0  0  0  0  0  0  0  0  0  0
    0.7144    3.5315    0.0000 C   0  0  0  0  0  0  0  0  0  0  0  0
    1.4290    3.1190    0.0000 N   0  3  0  0  0  0  0  0  0  0  0  0
    2.1434    3.5315    0.0000 C   0  0  0  0  0  0  0  0  0  0  0  0
    2.1434    4.3565    0.0000 C   0  0  0  0  0  0  0  0  0  0  0  0
    2.8579    3.1190    0.0000 C   0  0  0  0  0  0  0  0  0  0  0  0
    3.5724    3.5315    0.0000 C   0  0  0  0  0  0  0  0  0  0  0  0
    4.2868    3.1190    0.0000 O   0  0  0  0  0  0  0  0  0  0  0  0
    3.5724    4.3565    0.0000 O   0  0  0  0  0  0  0  0  0  0  0  0
    4.2868    4.7690    0.0000 C   0  0  0  0  0  0  0  0  0  0  0  0
    4.2868    5.5940    0.0000 C   0  0  0  0  0  0  0  0  0  0  0  0
    5.0013    4.3565    0.0000 C   0  0  0  0  0  0  0  0  0  0  0  0
    2.8579    2.2940    0.0000 C   0  0  0  0  0  0  0  0  0  0  0  0
    4.0010    1.6340    0.0000 C   0  0  0  0  0  0  0  0  0  0  0  0
    4.6330    2.1643    0.0000 C   0  0  0  0  0  0  0  0  0  0  0  0
    5.4083    1.8822    0.0000 C   0  0  0  0  0  0  0  0  0  0  0  0
    5.5515    1.0697    0.0000 C   0  0  0  0  0  0  0  0  0  0  0  0
    4.9195    0.5394    0.0000 C   0  0  0  0  0  0  0  0  0  0  0  0
    4.1443    0.8216    0.0000 C   0  0  0  0  0  0  0  0  0  0  0  0
    3.4549    0.0000    0.0000 Cl  0  0  0  0  0  0  0  0  0  0  0  0
    2.1434    1.8815    0.0000 C   0  0  0  0  0  0  0  0  0  0  0  0
    2.1434    1.0565    0.0000 C   0  0  0  0  0  0  0  0  0  0  0  0
    2.7754    0.5262    0.0000 O   0  0  0  0  0  0  0  0  0  0  0  0
    1.3957    0.7079    0.0000 O   0  0  0  0  0  0  0  0  0  0  0  0
    1.4290    2.2940    0.0000 C   0  0  0  0  0  0  0  0  0  0  0  0
    0.7144    1.8815    0.0000 C   0  0  0  0  0  0  0  0  0  0  0  0
    0.7144    1.0565    0.0000 O   0  0  0  0  0  0  0  0  0  0  0  0
    0.0000    2.2940    0.0000 O   0  0  0  0  0  0  0  0  0  0  0  0
  1  2  1  0  0  0  0
  2  3  1  0  0  0  0
  3 25  2  0  0  0  0
  3  4  1  0  0  0  0
  4  5  1  0  0  0  0
  4  6  2  0  0  0  0
  6  7  1  0  0  0  0
  7  8  2  0  0  0  0
  7  9  1  0  0  0  0
  9 10  1  0  0  0  0
 10 11  1  0  0  0  0
 10 12  1  0  0  0  0
  6 13  1  0  0  0  0
 13 14  1  0  0  0  0
 14 19  2  0  0  0  0
 14 15  1  0  0  0  0
 15 16  2  0  0  0  0
 16 17  1  0  0  0  0
 17 18  2  0  0  0  0
 18 19  1  0  0  0  0
 19 20  1  0  0  0  0
 13 21  2  0  0  0  0
 21 22  1  0  0  0  0
 22 23  2  0  0  0  0
 22 24  1  0  0  0  0
 21 25  1  0  0  0  0
 25 26  1  0  0  0  0
 26 27  2  0  0  0  0
 26 28  1  0  0  0  0
M  CHG  1   3   1
M  END
>  <CdId>
74

>  <Mol Weight>
406.84

>  <Formula>
C20H21ClNO6

>  <Name>
2,3-dicarboxy-4-(2-chloro-phenyl)-1-ethyl-5-isopropoxycarbonyl-6-methyl-pyridini

>  <Mol_ID>
274

>  <MolWeight>
406.84

>  <LogD>
-3.85

$$$$
2,3-dinor-6-ketoprostaglandin F1a
  Mrv2113 02112212262D          

 24 24  0  0  0  0            999 V2000
    8.6390    4.1549    0.0000 C   0  0  0  0  0  0  0  0  0  0  0  0
    8.4255    3.3580    0.0000 C   0  0  0  0  0  0  0  0  0  0  0  0
    7.6286    3.1445    0.0000 C   0  0  0  0  0  0  0  0  0  0  0  0
    7.4151    2.3476    0.0000 C   0  0  0  0  0  0  0  0  0  0  0  0
    6.6182    2.1340    0.0000 C   0  0  0  0  0  0  0  0  0  0  0  0
    6.4047    1.3371    0.0000 C   0  0  0  0  0  0  0  0  0  0  0  0
    6.9880    0.7538    0.0000 O   0  0  0  0  0  0  0  0  0  0  0  0
    5.6078    1.1236    0.0000 C   0  0  0  0  0  0  0  0  0  0  0  0
    5.0244    1.7070    0.0000 C   0  0  0  0  0  0  0  0  0  0  0  0
    4.2398    1.4521    0.0000 C   0  0  0  0  0  0  0  0  0  0  0  0
    3.9849    0.6674    0.0000 C   0  0  0  0  0  0  0  0  0  0  0  0
    4.4698    0.0000    0.0000 O   0  0  0  0  0  0  0  0  0  0  0  0
    3.1599    0.6674    0.0000 C   0  0  0  0  0  0  0  0  0  0  0  0
    2.9049    1.4521    0.0000 C   0  0  0  0  0  0  0  0  0  0  0  0
    2.1203    1.7070    0.0000 O   0  0  0  0  0  0  0  0  0  0  0  0
    3.5724    1.9370    0.0000 C   0  0  0  0  0  0  0  0  0  0  0  0
    3.5724    2.7620    0.0000 C   0  0  0  0  0  0  0  0  0  0  0  0
    2.8579    3.1745    0.0000 C   0  0  0  0  0  0  0  0  0  0  0  0
    2.8579    3.9995    0.0000 O   0  0  0  0  0  0  0  0  0  0  0  0
    2.1434    2.7620    0.0000 C   0  0  0  0  0  0  0  0  0  0  0  0
    1.4290    3.1745    0.0000 C   0  0  0  0  0  0  0  0  0  0  0  0
    0.7144    2.7620    0.0000 C   0  0  0  0  0  0  0  0  0  0  0  0
    0.7144    1.9370    0.0000 O   0  0  0  0  0  0  0  0  0  0  0  0
    0.0000    3.1745    0.0000 O   0  0  0  0  0  0  0  0  0  0  0  0
  1  2  1  0  0  0  0
  2  3  1  0  0  0  0
  3  4  1  0  0  0  0
  4  5  1  0  0  0  0
  5  6  1  0  0  0  0
  6  7  1  0  0  0  0
  6  8  1  0  0  0  0
  8  9  2  0  0  0  0
  9 10  1  0  0  0  0
 10 16  1  0  0  0  0
 10 11  1  0  0  0  0
 11 12  1  0  0  0  0
 11 13  1  0  0  0  0
 13 14  1  0  0  0  0
 14 15  1  0  0  0  0
 14 16  1  0  0  0  0
 16 17  1  0  0  0  0
 17 18  1  0  0  0  0
 18 19  2  0  0  0  0
 18 20  1  0  0  0  0
 20 21  1  0  0  0  0
 21 22  1  0  0  0  0
 22 23  2  0  0  0  0
 22 24  1  0  0  0  0
M  END
>  <CdId>
75

>  <Mol Weight>
342.43

>  <Formula>
C18H30O6

>  <Name>
2,3-dinor-6-ketoprostaglandin F1a

>  <Mol_ID>
275

>  <MolWeight>
342.43

>  <LogD>
-2.09

$$$$
2,4,5-trichlorophenoxyacetic acid
  Mrv2113 02112212262D          

 14 14  0  0  0  0            999 V2000
    0.0000    1.2375    0.0000 O   0  0  0  0  0  0  0  0  0  0  0  0
    0.7144    1.6500    0.0000 C   0  0  0  0  0  0  0  0  0  0  0  0
    0.7144    2.4750    0.0000 O   0  0  0  0  0  0  0  0  0  0  0  0
    1.4290    1.2375    0.0000 C   0  0  0  0  0  0  0  0  0  0  0  0
    2.1434    1.6500    0.0000 O   0  0  0  0  0  0  0  0  0  0  0  0
    2.8579    1.2375    0.0000 C   0  0  0  0  0  0  0  0  0  0  0  0
    3.5724    1.6500    0.0000 C   0  0  0  0  0  0  0  0  0  0  0  0
    4.2868    1.2375    0.0000 C   0  0  0  0  0  0  0  0  0  0  0  0
    5.0013    1.6500    0.0000 Cl  0  0  0  0  0  0  0  0  0  0  0  0
    4.2868    0.4125    0.0000 C   0  0  0  0  0  0  0  0  0  0  0  0
    5.0013    0.0000    0.0000 Cl  0  0  0  0  0  0  0  0  0  0  0  0
    3.5724    0.0000    0.0000 C   0  0  0  0  0  0  0  0  0  0  0  0
    2.8579    0.4125    0.0000 C   0  0  0  0  0  0  0  0  0  0  0  0
    2.1434    0.0000    0.0000 Cl  0  0  0  0  0  0  0  0  0  0  0  0
  1  2  1  0  0  0  0
  2  3  2  0  0  0  0
  2  4  1  0  0  0  0
  4  5  1  0  0  0  0
  5  6  1  0  0  0  0
  6 13  2  0  0  0  0
  6  7  1  0  0  0  0
  7  8  2  0  0  0  0
  8  9  1  0  0  0  0
  8 10  1  0  0  0  0
 10 11  1  0  0  0  0
 10 12  2  0  0  0  0
 12 13  1  0  0  0  0
 13 14  1  0  0  0  0
M  END
>  <CdId>
76

>  <Mol Weight>
255.48

>  <Formula>
C8H5Cl3O3

>  <Name>
2,4,5-trichlorophenoxyacetic acid

>  <Mol_ID>
276

>  <MolWeight>
255.48

>  <LogD>
-0.40

$$$$
2,4,5-trichlorophenoxyacetic acid, isooctyl ester
  Mrv2113 02112212262D          

 22 22  0  0  0  0            999 V2000
    0.0000    1.4290    0.0000 C   0  0  0  0  0  0  0  0  0  0  0  0
    0.8250    1.4290    0.0000 C   0  0  0  0  0  0  0  0  0  0  0  0
    1.2375    0.7144    0.0000 C   0  0  0  0  0  0  0  0  0  0  0  0
    2.0625    0.7144    0.0000 C   0  0  0  0  0  0  0  0  0  0  0  0
    2.4750    0.0000    0.0000 C   0  0  0  0  0  0  0  0  0  0  0  0
    3.3000    0.0000    0.0000 C   0  0  0  0  0  0  0  0  0  0  0  0
    3.7125    0.7144    0.0000 C   0  0  0  0  0  0  0  0  0  0  0  0
    3.3000    1.4290    0.0000 C   0  0  0  0  0  0  0  0  0  0  0  0
    4.5375    0.7144    0.0000 O   0  0  0  0  0  0  0  0  0  0  0  0
    4.9500    1.4290    0.0000 C   0  0  0  0  0  0  0  0  0  0  0  0
    4.5375    2.1434    0.0000 O   0  0  0  0  0  0  0  0  0  0  0  0
    5.7750    1.4290    0.0000 C   0  0  0  0  0  0  0  0  0  0  0  0
    6.1875    2.1434    0.0000 O   0  0  0  0  0  0  0  0  0  0  0  0
    7.0125    2.1434    0.0000 C   0  0  0  0  0  0  0  0  0  0  0  0
    7.4250    2.8579    0.0000 C   0  0  0  0  0  0  0  0  0  0  0  0
    8.2500    2.8579    0.0000 C   0  0  0  0  0  0  0  0  0  0  0  0
    8.6625    3.5724    0.0000 Cl  0  0  0  0  0  0  0  0  0  0  0  0
    8.6625    2.1434    0.0000 C   0  0  0  0  0  0  0  0  0  0  0  0
    9.4875    2.1434    0.0000 Cl  0  0  0  0  0  0  0  0  0  0  0  0
    8.2500    1.4290    0.0000 C   0  0  0  0  0  0  0  0  0  0  0  0
    7.4250    1.4290    0.0000 C   0  0  0  0  0  0  0  0  0  0  0  0
    7.0125    0.7144    0.0000 Cl  0  0  0  0  0  0  0  0  0  0  0  0
  1  2  1  0  0  0  0
  2  3  1  0  0  0  0
  3  4  1  0  0  0  0
  4  5  1  0  0  0  0
  5  6  1  0  0  0  0
  6  7  1  0  0  0  0
  7  8  1  0  0  0  0
  7  9  1  0  0  0  0
  9 10  1  0  0  0  0
 10 11  2  0  0  0  0
 10 12  1  0  0  0  0
 12 13  1  0  0  0  0
 13 14  1  0  0  0  0
 14 21  2  0  0  0  0
 14 15  1  0  0  0  0
 15 16  2  0  0  0  0
 16 17  1  0  0  0  0
 16 18  1  0  0  0  0
 18 19  1  0  0  0  0
 18 20  2  0  0  0  0
 20 21  1  0  0  0  0
 21 22  1  0  0  0  0
M  END
>  <CdId>
77

>  <Mol Weight>
367.69

>  <Formula>
C16H21Cl3O3

>  <Name>
2,4,5-trichlorophenoxyacetic acid, isooctyl ester

>  <Mol_ID>
277

>  <MolWeight>
367.70

>  <LogD>
6.33

$$$$
2,4,5-trichlorophenoxyacetic acid, methyl ester
  Mrv2113 02112212262D          

 15 15  0  0  0  0            999 V2000
    0.0000    1.6500    0.0000 C   0  0  0  0  0  0  0  0  0  0  0  0
    0.7145    1.2375    0.0000 O   0  0  0  0  0  0  0  0  0  0  0  0
    1.4290    1.6500    0.0000 C   0  0  0  0  0  0  0  0  0  0  0  0
    1.4290    2.4751    0.0000 O   0  0  0  0  0  0  0  0  0  0  0  0
    2.1435    1.2375    0.0000 C   0  0  0  0  0  0  0  0  0  0  0  0
    2.8579    1.6500    0.0000 O   0  0  0  0  0  0  0  0  0  0  0  0
    3.5724    1.2375    0.0000 C   0  0  0  0  0  0  0  0  0  0  0  0
    4.2869    1.6500    0.0000 C   0  0  0  0  0  0  0  0  0  0  0  0
    5.0014    1.2375    0.0000 C   0  0  0  0  0  0  0  0  0  0  0  0
    5.7159    1.6500    0.0000 Cl  0  0  0  0  0  0  0  0  0  0  0  0
    5.0014    0.4125    0.0000 C   0  0  0  0  0  0  0  0  0  0  0  0
    5.7159    0.0000    0.0000 Cl  0  0  0  0  0  0  0  0  0  0  0  0
    4.2869    0.0000    0.0000 C   0  0  0  0  0  0  0  0  0  0  0  0
    3.5724    0.4125    0.0000 C   0  0  0  0  0  0  0  0  0  0  0  0
    2.8579    0.0000    0.0000 Cl  0  0  0  0  0  0  0  0  0  0  0  0
  1  2  1  0  0  0  0
  2  3  1  0  0  0  0
  3  4  2  0  0  0  0
  3  5  1  0  0  0  0
  5  6  1  0  0  0  0
  6  7  1  0  0  0  0
  7 14  2  0  0  0  0
  7  8  1  0  0  0  0
  8  9  2  0  0  0  0
  9 10  1  0  0  0  0
  9 11  1  0  0  0  0
 11 12  1  0  0  0  0
 11 13  2  0  0  0  0
 13 14  1  0  0  0  0
 14 15  1  0  0  0  0
M  END
>  <CdId>
78

>  <Mol Weight>
269.50

>  <Formula>
C9H7Cl3O3

>  <Name>
2,4,5-trichlorophenoxyacetic acid, methyl ester

>  <Mol_ID>
278

>  <MolWeight>
269.51

>  <LogD>
3.25

$$$$
2,4,6-tribromophenol
  Mrv2113 02112212262D          

 10 10  0  0  0  0            999 V2000
    3.3000    1.4290    0.0000 O   0  0  0  0  0  0  0  0  0  0  0  0
    2.4750    1.4290    0.0000 C   0  0  0  0  0  0  0  0  0  0  0  0
    2.0625    0.7144    0.0000 C   0  0  0  0  0  0  0  0  0  0  0  0
    2.4750    0.0000    0.0000 Br  0  0  0  0  0  0  0  0  0  0  0  0
    1.2375    0.7144    0.0000 C   0  0  0  0  0  0  0  0  0  0  0  0
    0.8250    1.4290    0.0000 C   0  0  0  0  0  0  0  0  0  0  0  0
    0.0000    1.4290    0.0000 Br  0  0  0  0  0  0  0  0  0  0  0  0
    1.2375    2.1434    0.0000 C   0  0  0  0  0  0  0  0  0  0  0  0
    2.0625    2.1434    0.0000 C   0  0  0  0  0  0  0  0  0  0  0  0
    2.4750    2.8579    0.0000 Br  0  0  0  0  0  0  0  0  0  0  0  0
  1  2  1  0  0  0  0
  2  9  2  0  0  0  0
  2  3  1  0  0  0  0
  3  4  1  0  0  0  0
  3  5  2  0  0  0  0
  5  6  1  0  0  0  0
  6  7  1  0  0  0  0
  6  8  2  0  0  0  0
  8  9  1  0  0  0  0
  9 10  1  0  0  0  0
M  END
>  <CdId>
79

>  <Mol Weight>
330.80

>  <Formula>
C6H3Br3O

>  <Name>
2,4,6-tribromophenol

>  <Mol_ID>
279

>  <MolWeight>
330.80

>  <LogD>
2.92

$$$$
2,4-diamino-6-phenyl-5,6,7,8,-tetrahydropteridine
  Mrv2113 02112212262D          

 18 20  0  0  0  0            999 V2000
    0.0000    1.4290    0.0000 N   0  0  0  0  0  0  0  0  0  0  0  0
    0.8250    1.4290    0.0000 C   0  0  0  0  0  0  0  0  0  0  0  0
    1.2375    2.1434    0.0000 N   0  0  0  0  0  0  0  0  0  0  0  0
    2.0625    2.1434    0.0000 C   0  0  0  0  0  0  0  0  0  0  0  0
    2.4750    2.8579    0.0000 N   0  0  0  0  0  0  0  0  0  0  0  0
    2.4750    1.4290    0.0000 C   0  0  0  0  0  0  0  0  0  0  0  0
    3.3000    1.4290    0.0000 N   0  0  0  0  0  0  0  0  0  0  0  0
    3.7125    0.7144    0.0000 C   0  0  0  0  0  0  0  0  0  0  0  0
    3.3000    0.0000    0.0000 C   0  0  0  0  0  0  0  0  0  0  0  0
    2.4750    0.0000    0.0000 N   0  0  0  0  0  0  0  0  0  0  0  0
    2.0625    0.7144    0.0000 C   0  0  0  0  0  0  0  0  0  0  0  0
    1.2375    0.7144    0.0000 N   0  0  0  0  0  0  0  0  0  0  0  0
    4.5375    0.7144    0.0000 C   0  0  0  0  0  0  0  0  0  0  0  0
    4.9500    1.4290    0.0000 C   0  0  0  0  0  0  0  0  0  0  0  0
    5.7750    1.4290    0.0000 C   0  0  0  0  0  0  0  0  0  0  0  0
    6.1875    0.7144    0.0000 C   0  0  0  0  0  0  0  0  0  0  0  0
    5.7750    0.0000    0.0000 C   0  0  0  0  0  0  0  0  0  0  0  0
    4.9500    0.0000    0.0000 C   0  0  0  0  0  0  0  0  0  0  0  0
  1  2  1  0  0  0  0
  2 12  2  0  0  0  0
  2  3  1  0  0  0  0
  3  4  2  0  0  0  0
  4  5  1  0  0  0  0
  4  6  1  0  0  0  0
  6 11  2  0  0  0  0
  6  7  1  0  0  0  0
  7  8  1  0  0  0  0
  8  9  1  0  0  0  0
  9 10  1  0  0  0  0
 10 11  1  0  0  0  0
 11 12  1  0  0  0  0
  8 13  1  0  0  0  0
 13 18  2  0  0  0  0
 13 14  1  0  0  0  0
 14 15  2  0  0  0  0
 15 16  1  0  0  0  0
 16 17  2  0  0  0  0
 17 18  1  0  0  0  0
M  END
>  <CdId>
80

>  <Mol Weight>
242.29

>  <Formula>
C12H14N6

>  <Name>
2,4-diamino-6-phenyl-5,6,7,8,-tetrahydropteridine

>  <Mol_ID>
280

>  <MolWeight>
242.28

>  <LogD>
0.68

$$$$
2,4-Dichlorobenzylamine
  Mrv2113 02112212262D          

 10 10  0  0  0  0            999 V2000
    3.7125    0.0000    0.0000 N   0  0  0  0  0  0  0  0  0  0  0  0
    3.3000    0.7144    0.0000 C   0  0  0  0  0  0  0  0  0  0  0  0
    2.4750    0.7144    0.0000 C   0  0  0  0  0  0  0  0  0  0  0  0
    2.0625    0.0000    0.0000 C   0  0  0  0  0  0  0  0  0  0  0  0
    1.2375    0.0000    0.0000 C   0  0  0  0  0  0  0  0  0  0  0  0
    0.8250    0.7144    0.0000 C   0  0  0  0  0  0  0  0  0  0  0  0
    0.0000    0.7144    0.0000 Cl  0  0  0  0  0  0  0  0  0  0  0  0
    1.2375    1.4290    0.0000 C   0  0  0  0  0  0  0  0  0  0  0  0
    2.0625    1.4290    0.0000 C   0  0  0  0  0  0  0  0  0  0  0  0
    2.4750    2.1434    0.0000 Cl  0  0  0  0  0  0  0  0  0  0  0  0
  1  2  1  0  0  0  0
  2  3  1  0  0  0  0
  3  9  2  0  0  0  0
  3  4  1  0  0  0  0
  4  5  2  0  0  0  0
  5  6  1  0  0  0  0
  6  7  1  0  0  0  0
  6  8  2  0  0  0  0
  8  9  1  0  0  0  0
  9 10  1  0  0  0  0
M  END
>  <CdId>
81

>  <Mol Weight>
176.04

>  <Formula>
C7H7Cl2N

>  <Name>
2,4-Dichlorobenzylamine

>  <Mol_ID>
281

>  <MolWeight>
176.04

>  <LogD>
0.77

$$$$
2,4-dichlorophenoxyacetic acid
  Mrv2113 02112212262D          

 13 13  0  0  0  0            999 V2000
    0.0000    1.2375    0.0000 O   0  0  0  0  0  0  0  0  0  0  0  0
    0.7144    0.8250    0.0000 C   0  0  0  0  0  0  0  0  0  0  0  0
    0.7144    0.0000    0.0000 O   0  0  0  0  0  0  0  0  0  0  0  0
    1.4290    1.2375    0.0000 C   0  0  0  0  0  0  0  0  0  0  0  0
    2.1434    0.8250    0.0000 O   0  0  0  0  0  0  0  0  0  0  0  0
    2.8579    1.2375    0.0000 C   0  0  0  0  0  0  0  0  0  0  0  0
    2.8579    2.0625    0.0000 C   0  0  0  0  0  0  0  0  0  0  0  0
    3.5724    2.4750    0.0000 C   0  0  0  0  0  0  0  0  0  0  0  0
    4.2868    2.0625    0.0000 C   0  0  0  0  0  0  0  0  0  0  0  0
    5.0013    2.4750    0.0000 Cl  0  0  0  0  0  0  0  0  0  0  0  0
    4.2868    1.2375    0.0000 C   0  0  0  0  0  0  0  0  0  0  0  0
    3.5724    0.8250    0.0000 C   0  0  0  0  0  0  0  0  0  0  0  0
    3.5724    0.0000    0.0000 Cl  0  0  0  0  0  0  0  0  0  0  0  0
  1  2  1  0  0  0  0
  2  3  2  0  0  0  0
  2  4  1  0  0  0  0
  4  5  1  0  0  0  0
  5  6  1  0  0  0  0
  6 12  2  0  0  0  0
  6  7  1  0  0  0  0
  7  8  2  0  0  0  0
  8  9  1  0  0  0  0
  9 10  1  0  0  0  0
  9 11  2  0  0  0  0
 11 12  1  0  0  0  0
 12 13  1  0  0  0  0
M  END
>  <CdId>
82

>  <Mol Weight>
221.03

>  <Formula>
C8H6Cl2O3

>  <Name>
2,4-dichlorophenoxyacetic acid

>  <Mol_ID>
282

>  <MolWeight>
221.04

>  <LogD>
-0.99

$$$$
2,4-dichlorophenoxyacetic acid, isooctyl ester
  Mrv2113 02112212262D          

 21 21  0  0  0  0            999 V2000
    9.4875    0.7144    0.0000 C   0  0  0  0  0  0  0  0  0  0  0  0
    8.6625    0.7144    0.0000 C   0  0  0  0  0  0  0  0  0  0  0  0
    8.2500    1.4290    0.0000 C   0  0  0  0  0  0  0  0  0  0  0  0
    7.4250    1.4290    0.0000 C   0  0  0  0  0  0  0  0  0  0  0  0
    7.0125    2.1434    0.0000 C   0  0  0  0  0  0  0  0  0  0  0  0
    6.1875    2.1434    0.0000 C   0  0  0  0  0  0  0  0  0  0  0  0
    5.7750    1.4290    0.0000 C   0  0  0  0  0  0  0  0  0  0  0  0
    6.1875    0.7144    0.0000 C   0  0  0  0  0  0  0  0  0  0  0  0
    4.9500    1.4290    0.0000 O   0  0  0  0  0  0  0  0  0  0  0  0
    4.5375    0.7144    0.0000 C   0  0  0  0  0  0  0  0  0  0  0  0
    4.9500    0.0000    0.0000 O   0  0  0  0  0  0  0  0  0  0  0  0
    3.7125    0.7144    0.0000 C   0  0  0  0  0  0  0  0  0  0  0  0
    3.3000    1.4290    0.0000 O   0  0  0  0  0  0  0  0  0  0  0  0
    2.4750    1.4290    0.0000 C   0  0  0  0  0  0  0  0  0  0  0  0
    2.0625    0.7144    0.0000 C   0  0  0  0  0  0  0  0  0  0  0  0
    1.2375    0.7144    0.0000 C   0  0  0  0  0  0  0  0  0  0  0  0
    0.8250    1.4290    0.0000 C   0  0  0  0  0  0  0  0  0  0  0  0
    0.0000    1.4290    0.0000 Cl  0  0  0  0  0  0  0  0  0  0  0  0
    1.2375    2.1434    0.0000 C   0  0  0  0  0  0  0  0  0  0  0  0
    2.0625    2.1434    0.0000 C   0  0  0  0  0  0  0  0  0  0  0  0
    2.4750    2.8579    0.0000 Cl  0  0  0  0  0  0  0  0  0  0  0  0
  1  2  1  0  0  0  0
  2  3  1  0  0  0  0
  3  4  1  0  0  0  0
  4  5  1  0  0  0  0
  5  6  1  0  0  0  0
  6  7  1  0  0  0  0
  7  8  1  0  0  0  0
  7  9  1  0  0  0  0
  9 10  1  0  0  0  0
 10 11  2  0  0  0  0
 10 12  1  0  0  0  0
 12 13  1  0  0  0  0
 13 14  1  0  0  0  0
 14 20  2  0  0  0  0
 14 15  1  0  0  0  0
 15 16  2  0  0  0  0
 16 17  1  0  0  0  0
 17 18  1  0  0  0  0
 17 19  2  0  0  0  0
 19 20  1  0  0  0  0
 20 21  1  0  0  0  0
M  END
>  <CdId>
83

>  <Mol Weight>
333.25

>  <Formula>
C16H22Cl2O3

>  <Name>
2,4-dichlorophenoxyacetic acid, isooctyl ester

>  <Mol_ID>
283

>  <MolWeight>
333.25

>  <LogD>
5.72

$$$$
2,4-dichlorophenoxyacetic acid, methyl ester
  Mrv2113 02112212262D          

 14 14  0  0  0  0            999 V2000
    5.7750    1.4290    0.0000 C   0  0  0  0  0  0  0  0  0  0  0  0
    4.9500    1.4290    0.0000 O   0  0  0  0  0  0  0  0  0  0  0  0
    4.5375    0.7144    0.0000 C   0  0  0  0  0  0  0  0  0  0  0  0
    4.9500    0.0000    0.0000 O   0  0  0  0  0  0  0  0  0  0  0  0
    3.7125    0.7144    0.0000 C   0  0  0  0  0  0  0  0  0  0  0  0
    3.3000    1.4290    0.0000 O   0  0  0  0  0  0  0  0  0  0  0  0
    2.4750    1.4290    0.0000 C   0  0  0  0  0  0  0  0  0  0  0  0
    2.0625    0.7144    0.0000 C   0  0  0  0  0  0  0  0  0  0  0  0
    1.2375    0.7144    0.0000 C   0  0  0  0  0  0  0  0  0  0  0  0
    0.8250    1.4290    0.0000 C   0  0  0  0  0  0  0  0  0  0  0  0
    0.0000    1.4290    0.0000 Cl  0  0  0  0  0  0  0  0  0  0  0  0
    1.2375    2.1434    0.0000 C   0  0  0  0  0  0  0  0  0  0  0  0
    2.0625    2.1434    0.0000 C   0  0  0  0  0  0  0  0  0  0  0  0
    2.4750    2.8579    0.0000 Cl  0  0  0  0  0  0  0  0  0  0  0  0
  1  2  1  0  0  0  0
  2  3  1  0  0  0  0
  3  4  2  0  0  0  0
  3  5  1  0  0  0  0
  5  6  1  0  0  0  0
  6  7  1  0  0  0  0
  7 13  2  0  0  0  0
  7  8  1  0  0  0  0
  8  9  2  0  0  0  0
  9 10  1  0  0  0  0
 10 11  1  0  0  0  0
 10 12  2  0  0  0  0
 12 13  1  0  0  0  0
 13 14  1  0  0  0  0
M  END
>  <CdId>
84

>  <Mol Weight>
235.06

>  <Formula>
C9H8Cl2O3

>  <Name>
2,4-dichlorophenoxyacetic acid, methyl ester

>  <Mol_ID>
284

>  <MolWeight>
235.07

>  <LogD>
2.65

$$$$
2,4-dichlorophenoxybutyric acid
  Mrv2113 02112212262D          

 15 15  0  0  0  0            999 V2000
    0.0000    1.2375    0.0000 O   0  0  0  0  0  0  0  0  0  0  0  0
    0.7144    0.8250    0.0000 C   0  0  0  0  0  0  0  0  0  0  0  0
    0.7144    0.0000    0.0000 O   0  0  0  0  0  0  0  0  0  0  0  0
    1.4290    1.2375    0.0000 C   0  0  0  0  0  0  0  0  0  0  0  0
    2.1434    0.8250    0.0000 C   0  0  0  0  0  0  0  0  0  0  0  0
    2.8579    1.2375    0.0000 C   0  0  0  0  0  0  0  0  0  0  0  0
    3.5724    0.8250    0.0000 O   0  0  0  0  0  0  0  0  0  0  0  0
    4.2868    1.2375    0.0000 C   0  0  0  0  0  0  0  0  0  0  0  0
    4.2868    2.0625    0.0000 C   0  0  0  0  0  0  0  0  0  0  0  0
    5.0013    2.4750    0.0000 C   0  0  0  0  0  0  0  0  0  0  0  0
    5.7158    2.0625    0.0000 C   0  0  0  0  0  0  0  0  0  0  0  0
    6.4302    2.4750    0.0000 Cl  0  0  0  0  0  0  0  0  0  0  0  0
    5.7158    1.2375    0.0000 C   0  0  0  0  0  0  0  0  0  0  0  0
    5.0013    0.8250    0.0000 C   0  0  0  0  0  0  0  0  0  0  0  0
    5.0013    0.0000    0.0000 Cl  0  0  0  0  0  0  0  0  0  0  0  0
  1  2  1  0  0  0  0
  2  3  2  0  0  0  0
  2  4  1  0  0  0  0
  4  5  1  0  0  0  0
  5  6  1  0  0  0  0
  6  7  1  0  0  0  0
  7  8  1  0  0  0  0
  8 14  2  0  0  0  0
  8  9  1  0  0  0  0
  9 10  2  0  0  0  0
 10 11  1  0  0  0  0
 11 12  1  0  0  0  0
 11 13  2  0  0  0  0
 13 14  1  0  0  0  0
 14 15  1  0  0  0  0
M  END
>  <CdId>
85

>  <Mol Weight>
249.09

>  <Formula>
C10H10Cl2O3

>  <Name>
2,4-dichlorophenoxybutyric acid

>  <Mol_ID>
285

>  <MolWeight>
249.09

>  <LogD>
-0.32

$$$$
2,4-dichlorophenoxybutyric acid, methyl ester
  Mrv2113 02112212262D          

 16 16  0  0  0  0            999 V2000
    7.1447    1.6500    0.0000 C   0  0  0  0  0  0  0  0  0  0  0  0
    6.4302    1.2375    0.0000 O   0  0  0  0  0  0  0  0  0  0  0  0
    5.7158    1.6500    0.0000 C   0  0  0  0  0  0  0  0  0  0  0  0
    5.7158    2.4750    0.0000 O   0  0  0  0  0  0  0  0  0  0  0  0
    5.0013    1.2375    0.0000 C   0  0  0  0  0  0  0  0  0  0  0  0
    4.2868    1.6500    0.0000 C   0  0  0  0  0  0  0  0  0  0  0  0
    3.5724    1.2375    0.0000 C   0  0  0  0  0  0  0  0  0  0  0  0
    2.8579    1.6500    0.0000 O   0  0  0  0  0  0  0  0  0  0  0  0
    2.1434    1.2375    0.0000 C   0  0  0  0  0  0  0  0  0  0  0  0
    2.1434    0.4125    0.0000 C   0  0  0  0  0  0  0  0  0  0  0  0
    1.4290    0.0000    0.0000 C   0  0  0  0  0  0  0  0  0  0  0  0
    0.7144    0.4125    0.0000 C   0  0  0  0  0  0  0  0  0  0  0  0
    0.0000    0.0000    0.0000 Cl  0  0  0  0  0  0  0  0  0  0  0  0
    0.7144    1.2375    0.0000 C   0  0  0  0  0  0  0  0  0  0  0  0
    1.4290    1.6500    0.0000 C   0  0  0  0  0  0  0  0  0  0  0  0
    1.4290    2.4750    0.0000 Cl  0  0  0  0  0  0  0  0  0  0  0  0
  1  2  1  0  0  0  0
  2  3  1  0  0  0  0
  3  4  2  0  0  0  0
  3  5  1  0  0  0  0
  5  6  1  0  0  0  0
  6  7  1  0  0  0  0
  7  8  1  0  0  0  0
  8  9  1  0  0  0  0
  9 15  2  0  0  0  0
  9 10  1  0  0  0  0
 10 11  2  0  0  0  0
 11 12  1  0  0  0  0
 12 13  1  0  0  0  0
 12 14  2  0  0  0  0
 14 15  1  0  0  0  0
 15 16  1  0  0  0  0
M  END
>  <CdId>
86

>  <Mol Weight>
263.11

>  <Formula>
C11H12Cl2O3

>  <Name>
2,4-dichlorophenoxybutyric acid, methyl ester

>  <Mol_ID>
286

>  <MolWeight>
263.12

>  <LogD>
3.17

$$$$
2,4-dihydroxybenzoic acid
  Mrv2113 02112212262D          

 11 11  0  0  0  0            999 V2000
    3.7125    1.4290    0.0000 O   0  0  0  0  0  0  0  0  0  0  0  0
    3.3000    0.7144    0.0000 C   0  0  0  0  0  0  0  0  0  0  0  0
    3.7125    0.0000    0.0000 O   0  0  0  0  0  0  0  0  0  0  0  0
    2.4750    0.7144    0.0000 C   0  0  0  0  0  0  0  0  0  0  0  0
    2.0625    0.0000    0.0000 C   0  0  0  0  0  0  0  0  0  0  0  0
    1.2375    0.0000    0.0000 C   0  0  0  0  0  0  0  0  0  0  0  0
    0.8250    0.7144    0.0000 C   0  0  0  0  0  0  0  0  0  0  0  0
    0.0000    0.7144    0.0000 O   0  0  0  0  0  0  0  0  0  0  0  0
    1.2375    1.4290    0.0000 C   0  0  0  0  0  0  0  0  0  0  0  0
    2.0625    1.4290    0.0000 C   0  0  0  0  0  0  0  0  0  0  0  0
    2.4750    2.1434    0.0000 O   0  0  0  0  0  0  0  0  0  0  0  0
  1  2  1  0  0  0  0
  2  3  2  0  0  0  0
  2  4  1  0  0  0  0
  4 10  2  0  0  0  0
  4  5  1  0  0  0  0
  5  6  2  0  0  0  0
  6  7  1  0  0  0  0
  7  8  1  0  0  0  0
  7  9  2  0  0  0  0
  9 10  1  0  0  0  0
 10 11  1  0  0  0  0
M  END
>  <CdId>
87

>  <Mol Weight>
154.12

>  <Formula>
C7H6O4

>  <Name>
2,4-dihydroxybenzoic acid

>  <Mol_ID>
287

>  <MolWeight>
154.12

>  <LogD>
-1.79

$$$$
2,4-DIMETHOXY-5-NITROBENZENESULFONANILIDE
  Mrv2113 02112212262D          

 23 24  0  0  0  0            999 V2000
    0.1106    0.0000    0.0000 C   0  0  0  0  0  0  0  0  0  0  0  0
    0.8250    0.4125    0.0000 O   0  0  0  0  0  0  0  0  0  0  0  0
    0.8250    1.2375    0.0000 C   0  0  0  0  0  0  0  0  0  0  0  0
    0.1106    1.6500    0.0000 C   0  0  0  0  0  0  0  0  0  0  0  0
    0.1106    2.4750    0.0000 C   0  0  0  0  0  0  0  0  0  0  0  0
    0.8250    2.8875    0.0000 C   0  0  0  0  0  0  0  0  0  0  0  0
    1.5395    2.4750    0.0000 C   0  0  0  0  0  0  0  0  0  0  0  0
    1.5395    1.6500    0.0000 C   0  0  0  0  0  0  0  0  0  0  0  0
    0.8250    3.7125    0.0000 S   0  0  0  0  0  0  0  0  0  0  0  0
    1.6500    3.7125    0.0000 O   0  0  0  0  0  0  0  0  0  0  0  0
    0.0000    3.7125    0.0000 O   0  0  0  0  0  0  0  0  0  0  0  0
    0.8250    4.5375    0.0000 N   0  0  0  0  0  0  0  0  0  0  0  0
    1.5395    4.9500    0.0000 C   0  0  0  0  0  0  0  0  0  0  0  0
    2.2540    4.5375    0.0000 C   0  0  0  0  0  0  0  0  0  0  0  0
    2.9684    4.9500    0.0000 C   0  0  0  0  0  0  0  0  0  0  0  0
    2.9684    5.7750    0.0000 C   0  0  0  0  0  0  0  0  0  0  0  0
    2.2540    6.1875    0.0000 C   0  0  0  0  0  0  0  0  0  0  0  0
    1.5395    5.7750    0.0000 C   0  0  0  0  0  0  0  0  0  0  0  0
    0.8250    6.1875    0.0000 O   0  0  0  0  0  0  0  0  0  0  0  0
    0.8250    7.0125    0.0000 C   0  0  0  0  0  0  0  0  0  0  0  0
    3.6829    4.5375    0.0000 N   0  3  0  0  0  0  0  0  0  0  0  0
    3.6829    3.7125    0.0000 O   0  0  0  0  0  0  0  0  0  0  0  0
    4.3974    4.9500    0.0000 O   0  5  0  0  0  0  0  0  0  0  0  0
  1  2  1  0  0  0  0
  2  3  1  0  0  0  0
  3  8  2  0  0  0  0
  3  4  1  0  0  0  0
  4  5  2  0  0  0  0
  5  6  1  0  0  0  0
  6  7  2  0  0  0  0
  7  8  1  0  0  0  0
  6  9  1  0  0  0  0
  9 10  2  0  0  0  0
  9 11  2  0  0  0  0
  9 12  1  0  0  0  0
 12 13  1  0  0  0  0
 13 18  2  0  0  0  0
 13 14  1  0  0  0  0
 14 15  2  0  0  0  0
 15 16  1  0  0  0  0
 16 17  2  0  0  0  0
 17 18  1  0  0  0  0
 18 19  1  0  0  0  0
 19 20  1  0  0  0  0
 15 21  1  0  0  0  0
 21 22  2  0  0  0  0
 21 23  1  0  0  0  0
M  CHG  2  21   1  23  -1
M  END
>  <CdId>
88

>  <Mol Weight>
338.33

>  <Formula>
C14H14N2O6S

>  <Name>
2,4-DIMETHOXY-5-NITROBENZENESULFONANILIDE

>  <Mol_ID>
288

>  <MolWeight>
338.33

>  <LogD>
1.62

$$$$
2,4-dinitrophenol
  Mrv2113 02112212262D          

 13 13  0  0  0  0            999 V2000
    0.7145    2.4751    0.0000 O   0  0  0  0  0  0  0  0  0  0  0  0
    1.4290    2.0625    0.0000 C   0  0  0  0  0  0  0  0  0  0  0  0
    2.1435    2.4751    0.0000 C   0  0  0  0  0  0  0  0  0  0  0  0
    2.8579    2.0625    0.0000 C   0  0  0  0  0  0  0  0  0  0  0  0
    2.8579    1.2375    0.0000 C   0  0  0  0  0  0  0  0  0  0  0  0
    2.1435    0.8250    0.0000 C   0  0  0  0  0  0  0  0  0  0  0  0
    1.4290    1.2375    0.0000 C   0  0  0  0  0  0  0  0  0  0  0  0
    0.7145    0.8250    0.0000 N   0  3  0  0  0  0  0  0  0  0  0  0
    0.7145    0.0000    0.0000 O   0  0  0  0  0  0  0  0  0  0  0  0
    0.0000    1.2375    0.0000 O   0  5  0  0  0  0  0  0  0  0  0  0
    3.5724    0.8250    0.0000 N   0  3  0  0  0  0  0  0  0  0  0  0
    3.5724    0.0000    0.0000 O   0  0  0  0  0  0  0  0  0  0  0  0
    4.2869    1.2375    0.0000 O   0  5  0  0  0  0  0  0  0  0  0  0
  1  2  1  0  0  0  0
  2  7  2  0  0  0  0
  2  3  1  0  0  0  0
  3  4  2  0  0  0  0
  4  5  1  0  0  0  0
  5  6  2  0  0  0  0
  6  7  1  0  0  0  0
  7  8  1  0  0  0  0
  8  9  2  0  0  0  0
  8 10  1  0  0  0  0
  5 11  1  0  0  0  0
 11 12  2  0  0  0  0
 11 13  1  0  0  0  0
M  CHG  4   8   1  10  -1  11   1  13  -1
M  END
>  <CdId>
89

>  <Mol Weight>
184.11

>  <Formula>
C6H4N2O5

>  <Name>
2,4-dinitrophenol

>  <Mol_ID>
289

>  <MolWeight>
184.11

>  <LogD>
-0.36

$$$$
2,5-Anhydro-D-mannitol
  Mrv2113 02112212262D          

 11 11  0  0  0  0            999 V2000
    0.0000    0.8902    0.0000 O   0  0  0  0  0  0  0  0  0  0  0  0
    0.7537    0.5546    0.0000 C   0  0  0  0  0  0  0  0  0  0  0  0
    1.4211    1.0396    0.0000 C   0  0  0  0  0  0  0  0  0  0  0  0
    1.4211    1.8646    0.0000 O   0  0  0  0  0  0  0  0  0  0  0  0
    2.2058    2.1195    0.0000 C   0  0  0  0  0  0  0  0  0  0  0  0
    2.4607    2.9041    0.0000 C   0  0  0  0  0  0  0  0  0  0  0  0
    1.8773    3.4875    0.0000 O   0  0  0  0  0  0  0  0  0  0  0  0
    2.6907    1.4521    0.0000 C   0  0  0  0  0  0  0  0  0  0  0  0
    3.5157    1.4521    0.0000 O   0  0  0  0  0  0  0  0  0  0  0  0
    2.2058    0.7846    0.0000 C   0  0  0  0  0  0  0  0  0  0  0  0
    2.4607    0.0000    0.0000 O   0  0  0  0  0  0  0  0  0  0  0  0
  1  2  1  0  0  0  0
  2  3  1  0  0  0  0
  3 10  1  0  0  0  0
  3  4  1  0  0  0  0
  4  5  1  0  0  0  0
  5  6  1  0  0  0  0
  6  7  1  0  0  0  0
  5  8  1  0  0  0  0
  8  9  1  0  0  0  0
  8 10  1  0  0  0  0
 10 11  1  0  0  0  0
M  END
>  <CdId>
90

>  <Mol Weight>
164.16

>  <Formula>
C6H12O5

>  <Name>
2,5-Anhydro-D-mannitol

>  <Mol_ID>
290

>  <MolWeight>
164.16

>  <LogD>
-2.57

$$$$
2,5-anhydroglucitol-1,6-bisphosphate
  Mrv2113 02112212262D          

 19 19  0  0  0  0            999 V2000
    2.0885    2.6117    0.0000 O   0  0  0  0  0  0  0  0  0  0  0  0
    2.7560    2.1267    0.0000 C   0  0  0  0  0  0  0  0  0  0  0  0
    3.5406    2.3817    0.0000 C   0  0  0  0  0  0  0  0  0  0  0  0
    3.7955    3.1663    0.0000 O   0  0  0  0  0  0  0  0  0  0  0  0
    4.0255    1.7142    0.0000 C   0  0  0  0  0  0  0  0  0  0  0  0
    4.8505    1.7142    0.0000 C   0  0  0  0  0  0  0  0  0  0  0  0
    5.2630    0.9998    0.0000 O   0  0  0  0  0  0  0  0  0  0  0  0
    6.0880    0.9998    0.0000 P   0  0  0  0  0  0  0  0  0  0  0  0
    6.9130    0.9998    0.0000 O   0  0  0  0  0  0  0  0  0  0  0  0
    6.0880    0.1748    0.0000 O   0  0  0  0  0  0  0  0  0  0  0  0
    6.0880    1.8248    0.0000 O   0  0  0  0  0  0  0  0  0  0  0  0
    3.5406    1.0468    0.0000 O   0  0  0  0  0  0  0  0  0  0  0  0
    2.7560    1.3017    0.0000 C   0  0  0  0  0  0  0  0  0  0  0  0
    2.0885    0.8168    0.0000 C   0  0  0  0  0  0  0  0  0  0  0  0
    1.3349    1.1523    0.0000 O   0  0  0  0  0  0  0  0  0  0  0  0
    0.6674    0.6674    0.0000 P   0  0  0  0  0  0  0  0  0  0  0  0
    1.1523    0.0000    0.0000 O   0  0  0  0  0  0  0  0  0  0  0  0
    0.0000    0.1825    0.0000 O   0  0  0  0  0  0  0  0  0  0  0  0
    0.1825    1.3349    0.0000 O   0  0  0  0  0  0  0  0  0  0  0  0
  1  2  1  0  0  0  0
  2 13  1  0  0  0  0
  2  3  1  0  0  0  0
  3  4  1  0  0  0  0
  3  5  1  0  0  0  0
  5  6  1  0  0  0  0
  6  7  1  0  0  0  0
  7  8  1  0  0  0  0
  8  9  2  0  0  0  0
  8 10  1  0  0  0  0
  8 11  1  0  0  0  0
  5 12  1  0  0  0  0
 12 13  1  0  0  0  0
 13 14  1  0  0  0  0
 14 15  1  0  0  0  0
 15 16  1  0  0  0  0
 16 17  2  0  0  0  0
 16 18  1  0  0  0  0
 16 19  1  0  0  0  0
M  END
>  <CdId>
91

>  <Mol Weight>
324.12

>  <Formula>
C6H14O11P2

>  <Name>
2,5-anhydroglucitol-1,6-bisphosphate

>  <Mol_ID>
291

>  <MolWeight>
324.12

>  <LogD>
-9.87

$$$$
2,5-bis{[4-(n-cyclobutyldiaminomethyl)phenyl]}furan
  Mrv2113 02112212262D          

 31 35  0  0  0  0            999 V2000
   10.6465    2.2295    0.0000 N   0  0  0  0  0  0  0  0  0  0  0  0
    9.9320    2.6420    0.0000 C   0  0  0  0  0  0  0  0  0  0  0  0
    9.9320    3.4671    0.0000 N   0  0  0  0  0  0  0  0  0  0  0  0
   10.6465    3.8796    0.0000 C   0  0  0  0  0  0  0  0  0  0  0  0
   10.8600    4.6765    0.0000 C   0  0  0  0  0  0  0  0  0  0  0  0
   11.6569    4.4630    0.0000 C   0  0  0  0  0  0  0  0  0  0  0  0
   11.4434    3.6661    0.0000 C   0  0  0  0  0  0  0  0  0  0  0  0
    9.2176    2.2295    0.0000 C   0  0  0  0  0  0  0  0  0  0  0  0
    9.2176    1.4045    0.0000 C   0  0  0  0  0  0  0  0  0  0  0  0
    8.5031    0.9920    0.0000 C   0  0  0  0  0  0  0  0  0  0  0  0
    7.7886    1.4045    0.0000 C   0  0  0  0  0  0  0  0  0  0  0  0
    7.7886    2.2295    0.0000 C   0  0  0  0  0  0  0  0  0  0  0  0
    8.5031    2.6420    0.0000 C   0  0  0  0  0  0  0  0  0  0  0  0
    7.0741    0.9920    0.0000 C   0  0  0  0  0  0  0  0  0  0  0  0
    6.9879    0.1715    0.0000 C   0  0  0  0  0  0  0  0  0  0  0  0
    6.1809    0.0000    0.0000 C   0  0  0  0  0  0  0  0  0  0  0  0
    5.7684    0.7145    0.0000 C   0  0  0  0  0  0  0  0  0  0  0  0
    6.3204    1.3276    0.0000 O   0  0  0  0  0  0  0  0  0  0  0  0
    4.9479    0.8007    0.0000 C   0  0  0  0  0  0  0  0  0  0  0  0
    4.4630    0.1333    0.0000 C   0  0  0  0  0  0  0  0  0  0  0  0
    3.6425    0.2195    0.0000 C   0  0  0  0  0  0  0  0  0  0  0  0
    3.3069    0.9732    0.0000 C   0  0  0  0  0  0  0  0  0  0  0  0
    3.7919    1.6407    0.0000 C   0  0  0  0  0  0  0  0  0  0  0  0
    4.6123    1.5544    0.0000 C   0  0  0  0  0  0  0  0  0  0  0  0
    2.4864    1.0594    0.0000 C   0  0  0  0  0  0  0  0  0  0  0  0
    2.1908    1.8296    0.0000 N   0  0  0  0  0  0  0  0  0  0  0  0
    1.9672    0.4183    0.0000 N   0  0  0  0  0  0  0  0  0  0  0  0
    1.1524    0.5473    0.0000 C   0  0  0  0  0  0  0  0  0  0  0  0
    0.4849    0.0624    0.0000 C   0  0  0  0  0  0  0  0  0  0  0  0
    0.0000    0.7298    0.0000 C   0  0  0  0  0  0  0  0  0  0  0  0
    0.6674    1.2148    0.0000 C   0  0  0  0  0  0  0  0  0  0  0  0
  1  2  1  0  0  0  0
  2  3  1  0  0  0  0
  3  4  1  0  0  0  0
  4  7  1  0  0  0  0
  4  5  1  0  0  0  0
  5  6  1  0  0  0  0
  6  7  1  0  0  0  0
  2  8  1  0  0  0  0
  8 13  2  0  0  0  0
  8  9  1  0  0  0  0
  9 10  2  0  0  0  0
 10 11  1  0  0  0  0
 11 12  2  0  0  0  0
 12 13  1  0  0  0  0
 11 14  1  0  0  0  0
 14 18  1  0  0  0  0
 14 15  2  0  0  0  0
 15 16  1  0  0  0  0
 16 17  2  0  0  0  0
 17 18  1  0  0  0  0
 17 19  1  0  0  0  0
 19 24  2  0  0  0  0
 19 20  1  0  0  0  0
 20 21  2  0  0  0  0
 21 22  1  0  0  0  0
 22 23  2  0  0  0  0
 23 24  1  0  0  0  0
 22 25  1  0  0  0  0
 25 26  1  0  0  0  0
 25 27  1  0  0  0  0
 27 28  1  0  0  0  0
 31 28  1  0  0  0  0
 28 29  1  0  0  0  0
 29 30  1  0  0  0  0
 31 30  1  0  0  0  0
M  END
>  <CdId>
92

>  <Mol Weight>
416.57

>  <Formula>
C26H32N4O

>  <Name>
2,5-bis{[4-(n-cyclobutyldiaminomethyl)phenyl]}furan

>  <Mol_ID>
292

>  <MolWeight>
416.56

>  <LogD>
3.47

$$$$
2,5-bis{[4-(n-cyclohexyldiaminomethyl)phenyl]}furan
  Mrv2113 02112212262D          

 35 39  0  0  0  0            999 V2000
   11.1238    2.3233    0.0000 N   0  0  0  0  0  0  0  0  0  0  0  0
   10.4094    2.7359    0.0000 C   0  0  0  0  0  0  0  0  0  0  0  0
   10.4094    3.5609    0.0000 N   0  0  0  0  0  0  0  0  0  0  0  0
   11.1238    3.9734    0.0000 C   0  0  0  0  0  0  0  0  0  0  0  0
   11.1238    4.7984    0.0000 C   0  0  0  0  0  0  0  0  0  0  0  0
   11.8383    5.2109    0.0000 C   0  0  0  0  0  0  0  0  0  0  0  0
   12.5528    4.7984    0.0000 C   0  0  0  0  0  0  0  0  0  0  0  0
   12.5528    3.9734    0.0000 C   0  0  0  0  0  0  0  0  0  0  0  0
   11.8383    3.5609    0.0000 C   0  0  0  0  0  0  0  0  0  0  0  0
    9.6949    2.3233    0.0000 C   0  0  0  0  0  0  0  0  0  0  0  0
    9.6949    1.4983    0.0000 C   0  0  0  0  0  0  0  0  0  0  0  0
    8.9804    1.0858    0.0000 C   0  0  0  0  0  0  0  0  0  0  0  0
    8.2659    1.4983    0.0000 C   0  0  0  0  0  0  0  0  0  0  0  0
    8.2659    2.3233    0.0000 C   0  0  0  0  0  0  0  0  0  0  0  0
    8.9804    2.7359    0.0000 C   0  0  0  0  0  0  0  0  0  0  0  0
    7.5514    1.0858    0.0000 C   0  0  0  0  0  0  0  0  0  0  0  0
    7.4652    0.2654    0.0000 C   0  0  0  0  0  0  0  0  0  0  0  0
    6.6582    0.0938    0.0000 C   0  0  0  0  0  0  0  0  0  0  0  0
    6.2457    0.8083    0.0000 C   0  0  0  0  0  0  0  0  0  0  0  0
    6.7977    1.4214    0.0000 O   0  0  0  0  0  0  0  0  0  0  0  0
    5.4252    0.8945    0.0000 C   0  0  0  0  0  0  0  0  0  0  0  0
    4.9403    0.2271    0.0000 C   0  0  0  0  0  0  0  0  0  0  0  0
    4.1198    0.3133    0.0000 C   0  0  0  0  0  0  0  0  0  0  0  0
    3.7843    1.0670    0.0000 C   0  0  0  0  0  0  0  0  0  0  0  0
    4.2692    1.7345    0.0000 C   0  0  0  0  0  0  0  0  0  0  0  0
    5.0897    1.6482    0.0000 C   0  0  0  0  0  0  0  0  0  0  0  0
    2.9637    1.1532    0.0000 C   0  0  0  0  0  0  0  0  0  0  0  0
    2.6681    1.9235    0.0000 N   0  0  0  0  0  0  0  0  0  0  0  0
    2.4446    0.5121    0.0000 N   0  0  0  0  0  0  0  0  0  0  0  0
    1.6297    0.6412    0.0000 C   0  0  0  0  0  0  0  0  0  0  0  0
    1.1105    0.0000    0.0000 C   0  0  0  0  0  0  0  0  0  0  0  0
    0.2956    0.1291    0.0000 C   0  0  0  0  0  0  0  0  0  0  0  0
    0.0000    0.8993    0.0000 C   0  0  0  0  0  0  0  0  0  0  0  0
    0.5192    1.5404    0.0000 C   0  0  0  0  0  0  0  0  0  0  0  0
    1.3340    1.4114    0.0000 C   0  0  0  0  0  0  0  0  0  0  0  0
  1  2  1  0  0  0  0
  2  3  1  0  0  0  0
  3  4  1  0  0  0  0
  4  9  1  0  0  0  0
  4  5  1  0  0  0  0
  5  6  1  0  0  0  0
  6  7  1  0  0  0  0
  7  8  1  0  0  0  0
  8  9  1  0  0  0  0
  2 10  1  0  0  0  0
 10 15  2  0  0  0  0
 10 11  1  0  0  0  0
 11 12  2  0  0  0  0
 12 13  1  0  0  0  0
 13 14  2  0  0  0  0
 14 15  1  0  0  0  0
 13 16  1  0  0  0  0
 16 20  1  0  0  0  0
 16 17  2  0  0  0  0
 17 18  1  0  0  0  0
 18 19  2  0  0  0  0
 19 20  1  0  0  0  0
 19 21  1  0  0  0  0
 21 26  2  0  0  0  0
 21 22  1  0  0  0  0
 22 23  2  0  0  0  0
 23 24  1  0  0  0  0
 24 25  2  0  0  0  0
 25 26  1  0  0  0  0
 24 27  1  0  0  0  0
 27 28  1  0  0  0  0
 27 29  1  0  0  0  0
 29 30  1  0  0  0  0
 30 35  1  0  0  0  0
 30 31  1  0  0  0  0
 31 32  1  0  0  0  0
 32 33  1  0  0  0  0
 33 34  1  0  0  0  0
 34 35  1  0  0  0  0
M  END
>  <CdId>
93

>  <Mol Weight>
472.68

>  <Formula>
C30H40N4O

>  <Name>
2,5-bis{[4-(n-cyclohexyldiaminomethyl)phenyl]}furan

>  <Mol_ID>
293

>  <MolWeight>
472.67

>  <LogD>
5.12

$$$$
2,6-dimethyl-1-(3-[3-methyl-5-isoxazolyl]-propanyl)-4-[2n-methyl-2h-tetrazol-5-y
  Mrv2113 02112212262D          

 24 26  0  0  0  0            999 V2000
    0.0000    0.8007    0.0000 C   0  0  0  0  0  0  0  0  0  0  0  0
    0.8205    0.7145    0.0000 C   0  0  0  0  0  0  0  0  0  0  0  0
    1.3725    1.3275    0.0000 C   0  0  0  0  0  0  0  0  0  0  0  0
    2.1262    0.9920    0.0000 C   0  0  0  0  0  0  0  0  0  0  0  0
    2.8407    1.4045    0.0000 C   0  0  0  0  0  0  0  0  0  0  0  0
    3.5551    0.9920    0.0000 C   0  0  0  0  0  0  0  0  0  0  0  0
    4.2696    1.4045    0.0000 C   0  0  0  0  0  0  0  0  0  0  0  0
    4.9841    0.9920    0.0000 O   0  0  0  0  0  0  0  0  0  0  0  0
    5.6986    1.4045    0.0000 C   0  0  0  0  0  0  0  0  0  0  0  0
    5.6986    2.2295    0.0000 C   0  0  0  0  0  0  0  0  0  0  0  0
    4.9841    2.6420    0.0000 C   0  0  0  0  0  0  0  0  0  0  0  0
    6.4130    2.6420    0.0000 C   0  0  0  0  0  0  0  0  0  0  0  0
    7.1275    2.2295    0.0000 C   0  0  0  0  0  0  0  0  0  0  0  0
    7.1275    1.4045    0.0000 C   0  0  0  0  0  0  0  0  0  0  0  0
    6.4130    0.9920    0.0000 C   0  0  0  0  0  0  0  0  0  0  0  0
    6.4130    0.1670    0.0000 C   0  0  0  0  0  0  0  0  0  0  0  0
    7.8420    2.6420    0.0000 C   0  0  0  0  0  0  0  0  0  0  0  0
    7.9282    3.4625    0.0000 N   0  0  0  0  0  0  0  0  0  0  0  0
    8.7352    3.6340    0.0000 N   0  0  0  0  0  0  0  0  0  0  0  0
    9.1477    2.9196    0.0000 N   0  0  0  0  0  0  0  0  0  0  0  0
    9.9681    2.8333    0.0000 C   0  0  0  0  0  0  0  0  0  0  0  0
    8.5956    2.3065    0.0000 N   0  0  0  0  0  0  0  0  0  0  0  0
    2.0399    0.1715    0.0000 O   0  0  0  0  0  0  0  0  0  0  0  0
    1.2330    0.0000    0.0000 N   0  0  0  0  0  0  0  0  0  0  0  0
  1  2  1  0  0  0  0
  2 24  2  0  0  0  0
  2  3  1  0  0  0  0
  3  4  2  0  0  0  0
  4  5  1  0  0  0  0
  5  6  1  0  0  0  0
  6  7  1  0  0  0  0
  7  8  1  0  0  0  0
  8  9  1  0  0  0  0
  9 15  2  0  0  0  0
  9 10  1  0  0  0  0
 10 11  1  0  0  0  0
 10 12  2  0  0  0  0
 12 13  1  0  0  0  0
 13 14  2  0  0  0  0
 14 15  1  0  0  0  0
 15 16  1  0  0  0  0
 13 17  1  0  0  0  0
 17 22  2  0  0  0  0
 17 18  1  0  0  0  0
 18 19  2  0  0  0  0
 19 20  1  0  0  0  0
 20 21  1  0  0  0  0
 20 22  1  0  0  0  0
  4 23  1  0  0  0  0
 23 24  1  0  0  0  0
M  END
>  <CdId>
94

>  <Mol Weight>
327.39

>  <Formula>
C17H21N5O2

>  <Name>
2,6-dimethyl-1-(3-[3-methyl-5-isoxazolyl]-propanyl)-4-[2n-methyl-2h-tetrazol-5-y

>  <Mol_ID>
294

>  <MolWeight>
327.39

>  <LogD>
3.81

$$$$
2,7-bis-(4-amidinobenzylidene)-cycloheptan-1-one
  Mrv2113 02112212262D          

 28 30  0  0  0  0            999 V2000
    0.0000    2.0869    0.0000 N   0  0  0  0  0  0  0  0  0  0  0  0
    0.7145    2.4994    0.0000 C   0  0  0  0  0  0  0  0  0  0  0  0
    0.7145    3.3262    0.0000 N   0  0  0  0  0  0  0  0  0  0  0  0
    1.4275    2.0878    0.0000 C   0  0  0  0  0  0  0  0  0  0  0  0
    2.1458    2.5025    0.0000 C   0  0  0  0  0  0  0  0  0  0  0  0
    2.8553    2.0929    0.0000 C   0  0  0  0  0  0  0  0  0  0  0  0
    2.8553    1.2743    0.0000 C   0  0  0  0  0  0  0  0  0  0  0  0
    3.5757    0.8584    0.0000 C   0  0  0  0  0  0  0  0  0  0  0  0
    4.2962    1.2744    0.0000 C   0  0  0  0  0  0  0  0  0  0  0  0
    4.2356    2.0943    0.0000 C   0  0  0  0  0  0  0  0  0  0  0  0
    4.8190    2.6776    0.0000 C   0  0  0  0  0  0  0  0  0  0  0  0
    5.6465    2.5502    0.0000 C   0  0  0  0  0  0  0  0  0  0  0  0
    6.0590    1.8357    0.0000 C   0  0  0  0  0  0  0  0  0  0  0  0
    5.7536    1.0579    0.0000 C   0  0  0  0  0  0  0  0  0  0  0  0
    6.3370    0.4745    0.0000 C   0  0  0  0  0  0  0  0  0  0  0  0
    7.1373    0.6227    0.0000 C   0  0  0  0  0  0  0  0  0  0  0  0
    7.4059    1.4027    0.0000 C   0  0  0  0  0  0  0  0  0  0  0  0
    8.2157    1.5602    0.0000 C   0  0  0  0  0  0  0  0  0  0  0  0
    8.7570    0.9375    0.0000 C   0  0  0  0  0  0  0  0  0  0  0  0
    8.4884    0.1574    0.0000 C   0  0  0  0  0  0  0  0  0  0  0  0
    7.6785    0.0000    0.0000 C   0  0  0  0  0  0  0  0  0  0  0  0
    9.5669    1.0949    0.0000 C   0  0  0  0  0  0  0  0  0  0  0  0
    9.8355    1.8750    0.0000 N   0  0  0  0  0  0  0  0  0  0  0  0
   10.1081    0.4723    0.0000 N   0  0  0  0  0  0  0  0  0  0  0  0
    4.9760    0.8201    0.0000 C   0  0  0  0  0  0  0  0  0  0  0  0
    4.8572    0.0037    0.0000 O   0  0  0  0  0  0  0  0  0  0  0  0
    2.1466    0.8652    0.0000 C   0  0  0  0  0  0  0  0  0  0  0  0
    1.4275    1.2672    0.0000 C   0  0  0  0  0  0  0  0  0  0  0  0
  1  2  1  0  0  0  0
  2  3  2  0  0  0  0
  2  4  1  0  0  0  0
  4 28  2  0  0  0  0
  4  5  1  0  0  0  0
  5  6  2  0  0  0  0
  6  7  1  0  0  0  0
  7  8  1  0  0  0  0
  8  9  1  0  0  0  0
  9 25  1  0  0  0  0
  9 10  1  0  0  0  0
 10 11  1  0  0  0  0
 11 12  1  0  0  0  0
 12 13  1  0  0  0  0
 13 14  1  0  0  0  0
 14 15  1  0  0  0  0
 15 16  1  0  0  0  0
 16 21  2  0  0  0  0
 16 17  1  0  0  0  0
 17 18  2  0  0  0  0
 18 19  1  0  0  0  0
 19 20  2  0  0  0  0
 20 21  1  0  0  0  0
 19 22  1  0  0  0  0
 22 23  2  0  0  0  0
 22 24  1  0  0  0  0
 14 25  1  0  0  0  0
 25 26  2  0  0  0  0
  7 27  2  0  0  0  0
 27 28  1  0  0  0  0
M  END
>  <CdId>
95

>  <Mol Weight>
376.50

>  <Formula>
C23H28N4O

>  <Name>
2,7-bis-(4-amidinobenzylidene)-cycloheptan-1-one

>  <Mol_ID>
295

>  <MolWeight>
376.50

>  <LogD>
-0.80

$$$$
2-(2,2-diphenyl-ethyl)-7-methyl-1,3-dioxo-2,3,5,8-tetrahydro-1h-[1,2,4] triazolo
  Mrv2113 02112212262D          

 41 46  0  0  0  0            999 V2000
    4.2508    6.4404    0.0000 C   0  0  0  0  0  0  0  0  0  0  0  0
    4.2508    5.6154    0.0000 C   0  0  0  0  0  0  0  0  0  0  0  0
    4.9652    5.2029    0.0000 C   0  0  0  0  0  0  0  0  0  0  0  0
    4.9652    4.3779    0.0000 C   0  0  0  0  0  0  0  0  0  0  0  0
    5.6797    3.9654    0.0000 C   0  0  0  0  0  0  0  0  0  0  0  0
    5.6797    3.1404    0.0000 O   0  0  0  0  0  0  0  0  0  0  0  0
    6.3942    4.3779    0.0000 N   0  0  0  0  0  0  0  0  0  0  0  0
    7.1086    3.9654    0.0000 C   0  0  0  0  0  0  0  0  0  0  0  0
    7.8231    4.3779    0.0000 C   0  0  0  0  0  0  0  0  0  0  0  0
    8.5376    3.9654    0.0000 C   0  0  0  0  0  0  0  0  0  0  0  0
    8.5376    3.1404    0.0000 C   0  0  0  0  0  0  0  0  0  0  0  0
    7.8231    2.7279    0.0000 C   0  0  0  0  0  0  0  0  0  0  0  0
    7.1086    3.1404    0.0000 C   0  0  0  0  0  0  0  0  0  0  0  0
    9.2521    2.7279    0.0000 C   0  0  0  0  0  0  0  0  0  0  0  0
   10.0057    3.0635    0.0000 C   0  0  0  0  0  0  0  0  0  0  0  0
   10.5578    2.4504    0.0000 N   0  0  0  0  0  0  0  0  0  0  0  0
   10.1453    1.7359    0.0000 C   0  0  0  0  0  0  0  0  0  0  0  0
   10.4808    0.9823    0.0000 N   0  0  0  0  0  0  0  0  0  0  0  0
    9.3383    1.9075    0.0000 N   0  0  0  0  0  0  0  0  0  0  0  0
    4.2508    3.9654    0.0000 N   0  0  0  0  0  0  0  0  0  0  0  0
    3.5363    4.3779    0.0000 N   0  0  0  0  0  0  0  0  0  0  0  0
    3.5363    5.2029    0.0000 C   0  0  0  0  0  0  0  0  0  0  0  0
    2.9232    3.8259    0.0000 C   0  0  0  0  0  0  0  0  0  0  0  0
    2.1162    3.9974    0.0000 O   0  0  0  0  0  0  0  0  0  0  0  0
    3.2588    3.0722    0.0000 N   0  0  0  0  0  0  0  0  0  0  0  0
    2.7225    2.1434    0.0000 C   0  0  0  0  0  0  0  0  0  0  0  0
    1.6500    2.1434    0.0000 C   0  0  0  0  0  0  0  0  0  0  0  0
    1.2375    2.8579    0.0000 C   0  0  0  0  0  0  0  0  0  0  0  0
    0.4125    2.8579    0.0000 C   0  0  0  0  0  0  0  0  0  0  0  0
    0.0000    3.5724    0.0000 C   0  0  0  0  0  0  0  0  0  0  0  0
    0.4125    4.2868    0.0000 C   0  0  0  0  0  0  0  0  0  0  0  0
    1.2375    4.2868    0.0000 C   0  0  0  0  0  0  0  0  0  0  0  0
    1.6500    3.5724    0.0000 C   0  0  0  0  0  0  0  0  0  0  0  0
    1.2375    1.4290    0.0000 C   0  0  0  0  0  0  0  0  0  0  0  0
    1.6500    0.7144    0.0000 C   0  0  0  0  0  0  0  0  0  0  0  0
    1.2375    0.0000    0.0000 C   0  0  0  0  0  0  0  0  0  0  0  0
    0.4125    0.0000    0.0000 C   0  0  0  0  0  0  0  0  0  0  0  0
    0.0000    0.7144    0.0000 C   0  0  0  0  0  0  0  0  0  0  0  0
    0.4125    1.4290    0.0000 C   0  0  0  0  0  0  0  0  0  0  0  0
    4.0792    3.1585    0.0000 C   0  0  0  0  0  0  0  0  0  0  0  0
    4.6313    2.5454    0.0000 O   0  0  0  0  0  0  0  0  0  0  0  0
  1  2  1  0  0  0  0
  2 22  1  0  0  0  0
  2  3  2  0  0  0  0
  3  4  1  0  0  0  0
  4  5  1  0  0  0  0
  5  6  2  0  0  0  0
  5  7  1  0  0  0  0
  7  8  1  0  0  0  0
  8 13  1  0  0  0  0
  8  9  1  0  0  0  0
  9 10  1  0  0  0  0
 10 11  1  0  0  0  0
 11 12  1  0  0  0  0
 12 13  1  0  0  0  0
 11 14  1  0  0  0  0
 14 19  1  0  0  0  0
 14 15  2  0  0  0  0
 15 16  1  0  0  0  0
 16 17  2  0  0  0  0
 17 18  1  0  0  0  0
 17 19  1  0  0  0  0
  4 20  1  0  0  0  0
 20 40  1  0  0  0  0
 20 21  1  0  0  0  0
 21 22  1  0  0  0  0
 21 23  1  0  0  0  0
 23 24  2  0  0  0  0
 23 25  1  0  0  0  0
 25 26  1  0  0  0  0
 26 27  1  0  0  0  0
 27 28  1  0  0  0  0
 28 33  2  0  0  0  0
 28 29  1  0  0  0  0
 29 30  2  0  0  0  0
 30 31  1  0  0  0  0
 31 32  2  0  0  0  0
 32 33  1  0  0  0  0
 27 34  1  0  0  0  0
 34 39  2  0  0  0  0
 34 35  1  0  0  0  0
 35 36  2  0  0  0  0
 36 37  1  0  0  0  0
 37 38  2  0  0  0  0
 38 39  1  0  0  0  0
 25 40  1  0  0  0  0
 40 41  2  0  0  0  0
M  END
>  <CdId>
96

>  <Mol Weight>
553.67

>  <Formula>
C31H35N7O3

>  <Name>
2-(2,2-diphenyl-ethyl)-7-methyl-1,3-dioxo-2,3,5,8-tetrahydro-1h-[1,2,4] triazolo

>  <Mol_ID>
296

>  <MolWeight>
553.66

>  <LogD>
2.38

$$$$
2-(2,2-diphenyl-ethyl)-7-methyl-1,3-dioxo-2,3,5,8-tetrahydro-1h-[1,2,4]triazolo
  Mrv2113 02112212262D          

 39 43  0  0  0  0            999 V2000
    6.5443    4.2868    0.0000 C   0  0  0  0  0  0  0  0  0  0  0  0
    6.1318    3.5724    0.0000 C   0  0  0  0  0  0  0  0  0  0  0  0
    6.5443    2.8579    0.0000 C   0  0  0  0  0  0  0  0  0  0  0  0
    6.1318    2.1434    0.0000 C   0  0  0  0  0  0  0  0  0  0  0  0
    6.5443    1.4290    0.0000 C   0  0  0  0  0  0  0  0  0  0  0  0
    6.1318    0.7145    0.0000 O   0  0  0  0  0  0  0  0  0  0  0  0
    7.3693    1.4290    0.0000 N   0  0  0  0  0  0  0  0  0  0  0  0
    7.7818    0.7145    0.0000 C   0  0  0  0  0  0  0  0  0  0  0  0
    8.6068    0.7145    0.0000 C   0  0  0  0  0  0  0  0  0  0  0  0
    9.0193    1.4290    0.0000 C   0  0  0  0  0  0  0  0  0  0  0  0
    9.8443    1.4290    0.0000 C   0  0  0  0  0  0  0  0  0  0  0  0
   10.2568    0.7145    0.0000 C   0  0  0  0  0  0  0  0  0  0  0  0
    9.8443    0.0000    0.0000 C   0  0  0  0  0  0  0  0  0  0  0  0
    9.0193    0.0000    0.0000 C   0  0  0  0  0  0  0  0  0  0  0  0
   11.0818    0.7145    0.0000 C   0  0  0  0  0  0  0  0  0  0  0  0
   11.4943    1.4290    0.0000 N   0  0  0  0  0  0  0  0  0  0  0  0
   11.4943    0.0000    0.0000 N   0  0  0  0  0  0  0  0  0  0  0  0
    5.3068    2.1434    0.0000 N   0  0  0  0  0  0  0  0  0  0  0  0
    4.8943    2.8579    0.0000 N   0  0  0  0  0  0  0  0  0  0  0  0
    5.3068    3.5724    0.0000 C   0  0  0  0  0  0  0  0  0  0  0  0
    4.0873    2.6864    0.0000 C   0  0  0  0  0  0  0  0  0  0  0  0
    3.4742    3.2384    0.0000 O   0  0  0  0  0  0  0  0  0  0  0  0
    4.0010    1.8659    0.0000 N   0  0  0  0  0  0  0  0  0  0  0  0
    3.0722    1.3296    0.0000 C   0  0  0  0  0  0  0  0  0  0  0  0
    2.1434    1.8659    0.0000 C   0  0  0  0  0  0  0  0  0  0  0  0
    2.1434    2.6909    0.0000 C   0  0  0  0  0  0  0  0  0  0  0  0
    1.4290    3.1034    0.0000 C   0  0  0  0  0  0  0  0  0  0  0  0
    1.4290    3.9284    0.0000 C   0  0  0  0  0  0  0  0  0  0  0  0
    2.1434    4.3409    0.0000 C   0  0  0  0  0  0  0  0  0  0  0  0
    2.8579    3.9284    0.0000 C   0  0  0  0  0  0  0  0  0  0  0  0
    2.8579    3.1034    0.0000 C   0  0  0  0  0  0  0  0  0  0  0  0
    1.4290    1.4534    0.0000 C   0  0  0  0  0  0  0  0  0  0  0  0
    1.4290    0.6284    0.0000 C   0  0  0  0  0  0  0  0  0  0  0  0
    0.7145    0.2159    0.0000 C   0  0  0  0  0  0  0  0  0  0  0  0
    0.0000    0.6284    0.0000 C   0  0  0  0  0  0  0  0  0  0  0  0
    0.0000    1.4534    0.0000 C   0  0  0  0  0  0  0  0  0  0  0  0
    0.7145    1.8659    0.0000 C   0  0  0  0  0  0  0  0  0  0  0  0
    4.7547    1.5303    0.0000 C   0  0  0  0  0  0  0  0  0  0  0  0
    4.9263    0.7233    0.0000 O   0  0  0  0  0  0  0  0  0  0  0  0
  1  2  1  0  0  0  0
  2 20  1  0  0  0  0
  2  3  2  0  0  0  0
  3  4  1  0  0  0  0
  4  5  1  0  0  0  0
  5  6  2  0  0  0  0
  5  7  1  0  0  0  0
  7  8  1  0  0  0  0
  8  9  1  0  0  0  0
  9 14  1  0  0  0  0
  9 10  1  0  0  0  0
 10 11  1  0  0  0  0
 11 12  1  0  0  0  0
 12 13  1  0  0  0  0
 13 14  1  0  0  0  0
 12 15  1  0  0  0  0
 15 16  2  0  0  0  0
 15 17  1  0  0  0  0
  4 18  1  0  0  0  0
 38 18  1  0  0  0  0
 18 19  1  0  0  0  0
 19 20  1  0  0  0  0
 19 21  1  0  0  0  0
 21 22  2  0  0  0  0
 21 23  1  0  0  0  0
 23 24  1  0  0  0  0
 24 25  1  0  0  0  0
 25 26  1  0  0  0  0
 31 26  2  0  0  0  0
 26 27  1  0  0  0  0
 27 28  2  0  0  0  0
 28 29  1  0  0  0  0
 29 30  2  0  0  0  0
 31 30  1  0  0  0  0
 32 25  1  0  0  0  0
 32 37  2  0  0  0  0
 32 33  1  0  0  0  0
 33 34  2  0  0  0  0
 34 35  1  0  0  0  0
 35 36  2  0  0  0  0
 36 37  1  0  0  0  0
 38 23  1  0  0  0  0
 38 39  2  0  0  0  0
M  END
>  <CdId>
97

>  <Mol Weight>
528.66

>  <Formula>
C30H36N6O3

>  <Name>
2-(2,2-diphenyl-ethyl)-7-methyl-1,3-dioxo-2,3,5,8-tetrahydro-1h-[1,2,4]triazolo

>  <Mol_ID>
297

>  <MolWeight>
528.65

>  <LogD>
0.81

$$$$
2-(2-hydroxy-5-methoxy-phenyl)-1h-benzoimidazole-5-carboxamidine
  Mrv2113 02112212262D          

 21 23  0  0  0  0            999 V2000
    0.0000    0.0000    0.0000 C   0  0  0  0  0  0  0  0  0  0  0  0
    0.8250    0.0000    0.0000 O   0  0  0  0  0  0  0  0  0  0  0  0
    1.2375    0.7145    0.0000 C   0  0  0  0  0  0  0  0  0  0  0  0
    0.8250    1.4290    0.0000 C   0  0  0  0  0  0  0  0  0  0  0  0
    1.2375    2.1434    0.0000 C   0  0  0  0  0  0  0  0  0  0  0  0
    2.0625    2.1434    0.0000 C   0  0  0  0  0  0  0  0  0  0  0  0
    2.4750    2.8579    0.0000 O   0  0  0  0  0  0  0  0  0  0  0  0
    2.4750    1.4290    0.0000 C   0  0  0  0  0  0  0  0  0  0  0  0
    2.0625    0.7145    0.0000 C   0  0  0  0  0  0  0  0  0  0  0  0
    3.3000    1.4290    0.0000 C   0  0  0  0  0  0  0  0  0  0  0  0
    3.7849    2.0964    0.0000 N   0  0  0  0  0  0  0  0  0  0  0  0
    4.5696    1.8415    0.0000 C   0  0  0  0  0  0  0  0  0  0  0  0
    5.2840    2.2540    0.0000 C   0  0  0  0  0  0  0  0  0  0  0  0
    5.9985    1.8415    0.0000 C   0  0  0  0  0  0  0  0  0  0  0  0
    5.9985    1.0165    0.0000 C   0  0  0  0  0  0  0  0  0  0  0  0
    5.2840    0.6040    0.0000 C   0  0  0  0  0  0  0  0  0  0  0  0
    4.5696    1.0165    0.0000 C   0  0  0  0  0  0  0  0  0  0  0  0
    3.7849    0.7615    0.0000 N   0  0  0  0  0  0  0  0  0  0  0  0
    6.7130    2.2540    0.0000 C   0  0  0  0  0  0  0  0  0  0  0  0
    6.7130    3.0790    0.0000 N   0  3  0  0  0  0  0  0  0  0  0  0
    7.4274    1.8415    0.0000 N   0  0  0  0  0  0  0  0  0  0  0  0
  1  2  1  0  0  0  0
  2  3  1  0  0  0  0
  3  9  2  0  0  0  0
  3  4  1  0  0  0  0
  4  5  2  0  0  0  0
  5  6  1  0  0  0  0
  6  7  1  0  0  0  0
  6  8  2  0  0  0  0
  8  9  1  0  0  0  0
  8 10  1  0  0  0  0
 10 18  1  0  0  0  0
 10 11  2  0  0  0  0
 11 12  1  0  0  0  0
 12 17  2  0  0  0  0
 12 13  1  0  0  0  0
 13 14  2  0  0  0  0
 14 15  1  0  0  0  0
 15 16  2  0  0  0  0
 16 17  1  0  0  0  0
 17 18  1  0  0  0  0
 14 19  1  0  0  0  0
 19 20  2  0  0  0  0
 19 21  1  0  0  0  0
M  CHG  1  20   1
M  END
>  <CdId>
98

>  <Mol Weight>
283.31

>  <Formula>
C15H15N4O2

>  <Name>
2-(2-hydroxy-5-methoxy-phenyl)-1h-benzoimidazole-5-carboxamidine

>  <Mol_ID>
298

>  <MolWeight>
283.31

>  <LogD>
-0.12

$$$$
2-(2-hydroxy-biphenyl)-1h-benzoimidazole-5-carboxamidine
  Mrv2113 02112212262D          

 25 28  0  0  0  0            999 V2000
    7.8401    1.2375    0.0000 N   0  0  0  0  0  0  0  0  0  0  0  0
    7.1256    1.6500    0.0000 C   0  0  0  0  0  0  0  0  0  0  0  0
    7.1256    2.4751    0.0000 N   0  0  0  0  0  0  0  0  0  0  0  0
    6.4111    1.2375    0.0000 C   0  0  0  0  0  0  0  0  0  0  0  0
    6.4111    0.4125    0.0000 C   0  0  0  0  0  0  0  0  0  0  0  0
    5.6966    0.0000    0.0000 C   0  0  0  0  0  0  0  0  0  0  0  0
    4.9822    0.4125    0.0000 C   0  0  0  0  0  0  0  0  0  0  0  0
    4.1975    0.1576    0.0000 N   0  0  0  0  0  0  0  0  0  0  0  0
    3.7126    0.8250    0.0000 C   0  0  0  0  0  0  0  0  0  0  0  0
    4.1975    1.4925    0.0000 N   0  0  0  0  0  0  0  0  0  0  0  0
    4.9822    1.2375    0.0000 C   0  0  0  0  0  0  0  0  0  0  0  0
    5.6966    1.6500    0.0000 C   0  0  0  0  0  0  0  0  0  0  0  0
    2.8876    0.8250    0.0000 C   0  0  0  0  0  0  0  0  0  0  0  0
    2.4751    0.1106    0.0000 C   0  0  0  0  0  0  0  0  0  0  0  0
    1.6500    0.1106    0.0000 C   0  0  0  0  0  0  0  0  0  0  0  0
    1.2375    0.8250    0.0000 C   0  0  0  0  0  0  0  0  0  0  0  0
    1.6500    1.5395    0.0000 C   0  0  0  0  0  0  0  0  0  0  0  0
    2.4751    1.5395    0.0000 C   0  0  0  0  0  0  0  0  0  0  0  0
    2.8876    2.2540    0.0000 O   0  0  0  0  0  0  0  0  0  0  0  0
    1.2375    2.2540    0.0000 C   0  0  0  0  0  0  0  0  0  0  0  0
    0.4125    2.2540    0.0000 C   0  0  0  0  0  0  0  0  0  0  0  0
    0.0000    2.9685    0.0000 C   0  0  0  0  0  0  0  0  0  0  0  0
    0.4125    3.6829    0.0000 C   0  0  0  0  0  0  0  0  0  0  0  0
    1.2375    3.6829    0.0000 C   0  0  0  0  0  0  0  0  0  0  0  0
    1.6500    2.9685    0.0000 C   0  0  0  0  0  0  0  0  0  0  0  0
  1  2  1  0  0  0  0
  2  3  2  0  0  0  0
  2  4  1  0  0  0  0
  4 12  2  0  0  0  0
  4  5  1  0  0  0  0
  5  6  2  0  0  0  0
  6  7  1  0  0  0  0
  7 11  2  0  0  0  0
  7  8  1  0  0  0  0
  8  9  1  0  0  0  0
  9 10  2  0  0  0  0
 10 11  1  0  0  0  0
 11 12  1  0  0  0  0
  9 13  1  0  0  0  0
 13 18  2  0  0  0  0
 13 14  1  0  0  0  0
 14 15  2  0  0  0  0
 15 16  1  0  0  0  0
 16 17  2  0  0  0  0
 17 18  1  0  0  0  0
 18 19  1  0  0  0  0
 17 20  1  0  0  0  0
 20 25  2  0  0  0  0
 20 21  1  0  0  0  0
 21 22  2  0  0  0  0
 22 23  1  0  0  0  0
 23 24  2  0  0  0  0
 24 25  1  0  0  0  0
M  END
>  <CdId>
99

>  <Mol Weight>
328.38

>  <Formula>
C20H16N4O

>  <Name>
2-(2-hydroxy-biphenyl)-1h-benzoimidazole-5-carboxamidine

>  <Mol_ID>
299

>  <MolWeight>
328.37

>  <LogD>
1.89

$$$$
2-(2-hydroxy-phenyl)-1h-benzoimidazole-5-carboxamidine
  Mrv2113 02112212262D          

 19 21  0  0  0  0            999 V2000
    6.6026    1.2375    0.0000 N   0  0  0  0  0  0  0  0  0  0  0  0
    5.8881    1.6500    0.0000 C   0  0  0  0  0  0  0  0  0  0  0  0
    5.8881    2.4751    0.0000 N   0  3  0  0  0  0  0  0  0  0  0  0
    5.1736    1.2375    0.0000 C   0  0  0  0  0  0  0  0  0  0  0  0
    5.1736    0.4125    0.0000 C   0  0  0  0  0  0  0  0  0  0  0  0
    4.4591    0.0000    0.0000 C   0  0  0  0  0  0  0  0  0  0  0  0
    3.7446    0.4125    0.0000 C   0  0  0  0  0  0  0  0  0  0  0  0
    2.9600    0.1576    0.0000 N   0  0  0  0  0  0  0  0  0  0  0  0
    2.4751    0.8250    0.0000 C   0  0  0  0  0  0  0  0  0  0  0  0
    2.9600    1.4925    0.0000 N   0  0  0  0  0  0  0  0  0  0  0  0
    3.7446    1.2375    0.0000 C   0  0  0  0  0  0  0  0  0  0  0  0
    4.4591    1.6500    0.0000 C   0  0  0  0  0  0  0  0  0  0  0  0
    1.6500    0.8250    0.0000 C   0  0  0  0  0  0  0  0  0  0  0  0
    1.2375    0.1106    0.0000 C   0  0  0  0  0  0  0  0  0  0  0  0
    0.4125    0.1106    0.0000 C   0  0  0  0  0  0  0  0  0  0  0  0
    0.0000    0.8250    0.0000 C   0  0  0  0  0  0  0  0  0  0  0  0
    0.4125    1.5395    0.0000 C   0  0  0  0  0  0  0  0  0  0  0  0
    1.2375    1.5395    0.0000 C   0  0  0  0  0  0  0  0  0  0  0  0
    1.6500    2.2540    0.0000 O   0  0  0  0  0  0  0  0  0  0  0  0
  1  2  1  0  0  0  0
  2  3  2  0  0  0  0
  2  4  1  0  0  0  0
  4 12  2  0  0  0  0
  4  5  1  0  0  0  0
  5  6  2  0  0  0  0
  6  7  1  0  0  0  0
  7 11  2  0  0  0  0
  7  8  1  0  0  0  0
  8  9  1  0  0  0  0
  9 10  2  0  0  0  0
 10 11  1  0  0  0  0
 11 12  1  0  0  0  0
  9 13  1  0  0  0  0
 13 18  2  0  0  0  0
 13 14  1  0  0  0  0
 14 15  2  0  0  0  0
 15 16  1  0  0  0  0
 16 17  2  0  0  0  0
 17 18  1  0  0  0  0
 18 19  1  0  0  0  0
M  CHG  1   3   1
M  END
>  <CdId>
100

>  <Mol Weight>
253.28

>  <Formula>
C14H13N4O

>  <Name>
2-(2-hydroxy-phenyl)-1h-benzoimidazole-5-carboxamidine

>  <Mol_ID>
300

>  <MolWeight>
253.28

>  <LogD>
0.03

$$$$
